18
Lattice="20.027634 0.0 0.0 0.0 20.0 0.0 0.0 0.0 20.0" Properties=species:S:1:pos:R:3:forces:R:3 energy=-153.68068316 stress="-80.9662 -0.01024 0.00385 -0.01024 -2.55273 0.00377 0.00385 0.00377 -2.55187" pbc="T T T"
Zr       3.00567000      10.00064000      10.00040000       5.74073600       0.00259900      -0.00057500
Zr      10.01498000      10.00343000      10.00024000      -0.00151500      -0.00093600      -0.00108600
Zr      17.02396000      10.00197000       9.99955000      -5.74079100      -0.00001300      -0.00006500
Zr       0.00102000       9.99863000       9.99839000       0.00076100      -0.00084700      -0.00127700
Zr       6.54911000      10.00289000       9.99982000      -0.27789300      -0.00187500       0.00296400
Zr      13.48068000      10.00282000      10.00013000       0.27872300       0.00056900      -0.00136300
O        1.50353000      10.93151000       9.06921000       0.26903900      -0.19690100       0.19606600
O        8.28509000      10.87791000       9.12770000       0.04445100      -0.17915500       0.17835400
O       15.20321000      10.87913000       9.12518000       0.27384800      -0.25867800       0.25832800
O        1.50337000       9.06756000      10.92965000       0.27031200       0.19754900      -0.19858200
O        8.28409000       9.12872000      10.87230000       0.04156200       0.17764700      -0.17708400
O       15.20337000       9.12593000      10.87448000       0.27540000       0.25807200      -0.25681200
O        4.82621000      10.87655000      10.87673000      -0.27414100      -0.25864600      -0.25849200
O       11.74556000      10.87556000      10.87472000      -0.04152400      -0.17806300      -0.17819500
O       18.52806000      10.93026000      10.93092000      -0.27304600      -0.19395300      -0.19507500
O        4.82678000       9.12716000       9.12366000      -0.27683600       0.25717800       0.25884500
O       11.74500000       9.13078000       9.12581000      -0.04197800       0.17698800       0.17613900
O       18.52440000       9.07012000       9.06684000      -0.26710800       0.19846500       0.19790900
18
Lattice="20.027634 0.0 0.0 0.0 20.0 0.0 0.0 0.0 20.0" Properties=species:S:1:pos:R:3:forces:R:3 energy=-153.71870497 stress="-80.0527 -0.0116 0.00464 -0.0116 -1.04368 0.00235 0.00464 0.00235 -1.04041" pbc="T T T"
Zr       3.00567000      10.00064000      10.00040000       5.61266500       0.00197700      -0.00030900
Zr      10.01490000      10.00339000      10.00018000       0.00064300      -0.00111300      -0.00021300
Zr      17.02396000      10.00197000       9.99955000      -5.61395700      -0.00053800       0.00046100
Zr       0.00102000       9.99863000       9.99839000       0.00028600      -0.00125400      -0.00101500
Zr       6.53571000      10.00280000       9.99996000      -0.03658900      -0.00177900       0.00113400
Zr      13.49413000      10.00285000      10.00006000       0.03462100       0.00001400       0.00023200
O        1.50353000      10.93151000       9.06921000       0.24249600      -0.17905300       0.17798000
O        8.28723000      10.86926000       9.13631000      -0.06565700      -0.01363600       0.01448000
O       15.21643000      10.86665000       9.13764000       0.23590700      -0.01488400       0.01374200
O        1.50337000       9.06756000      10.92965000       0.24377400       0.17877000      -0.18010000
O        8.28610000       9.13729000      10.86375000      -0.06953500       0.01262500      -0.01296300
O       15.21666000       9.13838000      10.86209000       0.23768600       0.01455900      -0.01532700
O        4.81298000      10.86408000      10.86425000      -0.23591500      -0.01515400      -0.01380700
O       11.74356000      10.86697000      10.86612000       0.07167300      -0.01345800      -0.01516800
O       18.52806000      10.93026000      10.93092000      -0.24719500      -0.17617300      -0.17655200
O        4.81343000       9.13957000       9.13615000      -0.23768000       0.01516800       0.01508200
O       11.74297000       9.13932000       9.13430000       0.06809900       0.01419700       0.01249100
O       18.52440000       9.07012000       9.06684000      -0.24132000       0.17973200       0.17985300
18
Lattice="20.027634 0.0 0.0 0.0 20.0 0.0 0.0 0.0 20.0" Properties=species:S:1:pos:R:3:forces:R:3 energy=-153.72124255 stress="-79.70963 -0.00968 0.00473 -0.00968 -0.54048 0.00223 0.00473 0.00223 -0.54194" pbc="T T T"
Zr       3.00567000      10.00064000      10.00040000       5.56434500       0.00199200      -0.00048200
Zr      10.01488000      10.00337000      10.00017000       0.00156100      -0.00103200      -0.00022200
Zr      17.02396000      10.00197000       9.99955000      -5.56566500      -0.00049700       0.00036500
Zr       0.00102000       9.99863000       9.99839000       0.00033300      -0.00117500      -0.00119700
Zr       6.53127000      10.00277000      10.00001000       0.04417800      -0.00138200       0.00086000
Zr      13.49858000      10.00285000      10.00004000      -0.04681000      -0.00046800       0.00015200
O        1.50353000      10.93151000       9.06921000       0.23374400      -0.17276900       0.17156400
O        8.28794000      10.86640000       9.13916000      -0.10374900       0.04178900      -0.04202400
O       15.22080000      10.86251000       9.14177000       0.22155300       0.07104800      -0.06890500
O        1.50337000       9.06756000      10.92965000       0.23502300       0.17261300      -0.17409600
O        8.28676000       9.14012000      10.86092000      -0.10719100      -0.04226100       0.04253600
O       15.22106000       9.14250000      10.85799000       0.22312900      -0.06948400       0.06932900
O        4.80860000      10.85994000      10.86012000      -0.21946200       0.06885400       0.07075100
O       11.74289000      10.86413000      10.86327000       0.10705000       0.04206700       0.04119800
O       18.52806000      10.93026000      10.93092000      -0.23826300      -0.16991400      -0.17053000
O        4.80900000       9.14368000       9.14029000      -0.22277600      -0.07088800      -0.07033600
O       11.74230000       9.14215000       9.13712000       0.10541100      -0.04208000      -0.04241300
O       18.52440000       9.07012000       9.06684000      -0.23241000       0.17358700       0.17344800
18
Lattice="20.027634 0.0 0.0 0.0 20.0 0.0 0.0 0.0 20.0" Properties=species:S:1:pos:R:3:forces:R:3 energy=-153.73216874 stress="-79.89088 -0.00916 0.00527 -0.00916 -0.58133 0.00503 0.00527 0.00503 -0.5806" pbc="T T T"
Zr       3.00567000      10.00064000      10.00040000       5.47650900       0.00174500      -0.00036200
Zr      10.01494000      10.00331000      10.00014000      -0.00013400      -0.00029800      -0.00021100
Zr      17.02396000      10.00197000       9.99955000      -5.47817200      -0.00010700       0.00049800
Zr       0.00102000       9.99863000       9.99839000       0.00001900      -0.00108900      -0.00113800
Zr       6.53008000      10.00267000      10.00009000      -0.11429800      -0.00093100       0.00005700
Zr      13.49964000      10.00284000      10.00003000       0.11563100       0.00027900       0.00012700
O        1.50353000      10.93151000       9.06921000       0.20962300      -0.15732500       0.15618900
O        8.28316000      10.86632000       9.13921000      -0.07007000       0.02487800      -0.02388400
O       15.23561000      10.86295000       9.14144000       0.07826600       0.05874300      -0.05873500
O        1.50337000       9.06756000      10.92965000       0.21093300       0.15722200      -0.15872700
O        8.28176000       9.14016000      10.86091000      -0.07317400      -0.02662400       0.02666800
O       15.23596000       9.14214000      10.85836000       0.08109200      -0.05871500       0.05762000
O        4.79390000      10.86027000      10.86055000      -0.07856800       0.05706900       0.05843000
O       11.74788000      10.86408000      10.86318000       0.07134600       0.02532300       0.02551900
O       18.52806000      10.93026000      10.93092000      -0.21251800      -0.15447400      -0.15498000
O        4.79410000       9.14323000       9.13989000      -0.08038900      -0.05916300      -0.05784800
O       11.74720000       9.14219000       9.13713000       0.07057400      -0.02465800      -0.02719300
O       18.52440000       9.07012000       9.06684000      -0.20666800       0.15812400       0.15797100
18
Lattice="20.027634 0.0 0.0 0.0 20.0 0.0 0.0 0.0 20.0" Properties=species:S:1:pos:R:3:forces:R:3 energy=-153.73447479 stress="-79.97177 -0.00831 0.00372 -0.00831 -0.59914 0.00391 0.00372 0.00391 -0.59323" pbc="T T T"
Zr       3.00567000      10.00064000      10.00040000       5.40379800       0.00168000      -0.00034900
Zr      10.01499000      10.00326000      10.00012000      -0.00194500       0.00034900      -0.00035100
Zr      17.02396000      10.00197000       9.99955000      -5.40681400       0.00029800       0.00045900
Zr       0.00102000       9.99863000       9.99839000      -0.00079300      -0.00093500      -0.00120400
Zr       6.52920000      10.00260000      10.00015000      -0.22700500      -0.00023500      -0.00047000
Zr      13.50043000      10.00282000      10.00002000       0.23018800       0.00078800      -0.00005300
O        1.50353000      10.93151000       9.06921000       0.19087300      -0.14556400       0.14445900
O        8.27959000      10.86626000       9.13926000      -0.04212400       0.01205700      -0.01189500
O       15.24665000      10.86328000       9.14119000      -0.03207800       0.05349100      -0.05451700
O        1.50337000       9.06756000      10.92965000       0.19220600       0.14568100      -0.14722500
O        8.27804000       9.14019000      10.86090000      -0.04598300      -0.01550300       0.01504000
O       15.24708000       9.14187000      10.85863000      -0.02949000      -0.05365700       0.05309700
O        4.78293000      10.86051000      10.86086000       0.03297100       0.05145700       0.05326600
O       11.75161000      10.86404000      10.86310000       0.04410400       0.01359300       0.01376000
O       18.52806000      10.93026000      10.93092000      -0.19370600      -0.14271900      -0.14334100
O        4.78298000       9.14290000       9.13959000       0.03080700      -0.05388600      -0.05147300
O       11.75086000       9.14222000       9.13714000       0.04284800      -0.01342400      -0.01537100
O       18.52440000       9.07012000       9.06684000      -0.18785700       0.14653000       0.14616700
18
Lattice="20.027634 0.0 0.0 0.0 20.0 0.0 0.0 0.0 20.0" Properties=species:S:1:pos:R:3:forces:R:3 energy=-153.73902537 stress="-80.2065 -0.00656 0.00364 -0.00656 -0.8979 0.0033 0.00364 0.0033 -0.89529" pbc="T T T"
Zr       3.00567000      10.00064000      10.00040000       5.32318900       0.00095500       0.00015000
Zr      10.01490000      10.00324000      10.00009000       0.00029000      -0.00065300       0.00035400
Zr      17.02396000      10.00197000       9.99955000      -5.32519000       0.00031000       0.00029400
Zr       0.00102000       9.99863000       9.99839000      -0.00077800      -0.00106700      -0.00110600
Zr       6.51516000      10.00254000      10.00016000      -0.02166500      -0.00114500       0.00075700
Zr      13.51459000      10.00286000      10.00001000       0.02283400       0.00041000      -0.00032900
O        1.50353000      10.93151000       9.06921000       0.19349600      -0.14690900       0.14573700
O        8.27460000      10.86693000       9.13858000      -0.05094900      -0.02320500       0.02222500
O       15.25249000      10.86667000       9.13780000      -0.03111100       0.00084800      -0.00283600
O        1.50337000       9.06756000      10.92965000       0.19489500       0.14685800      -0.14845100
O        8.27271000       9.13929000      10.86178000      -0.05647100       0.02242900      -0.02254100
O       15.25313000       9.13851000      10.86197000      -0.02870900      -0.00204900       0.00108600
O        4.77720000      10.86372000      10.86423000       0.03035500       0.00221300       0.00330200
O       11.75682000      10.86481000      10.86387000       0.05502800      -0.02295600      -0.02414900
O       18.52806000      10.93026000      10.93092000      -0.19579900      -0.14410800      -0.14442400
O        4.77701000       9.13948000       9.13634000       0.02756400      -0.00303000      -0.00091000
O       11.75595000       9.14144000       9.13623000       0.05300600       0.02346500       0.02326700
O       18.52440000       9.07012000       9.06684000      -0.18998400       0.14763300       0.14757300
18
Lattice="20.027634 0.0 0.0 0.0 20.0 0.0 0.0 0.0 20.0" Properties=species:S:1:pos:R:3:forces:R:3 energy=-153.73908399 stress="-80.2339 -0.00663 0.00356 -0.00663 -0.93434 0.00343 0.00356 0.00343 -0.93095" pbc="T T T"
Zr       3.00567000      10.00064000      10.00040000       5.31092600       0.00099000       0.00017200
Zr      10.01489000      10.00324000      10.00009000       0.00042100      -0.00064700       0.00039100
Zr      17.02396000      10.00197000       9.99955000      -5.31307000       0.00044100       0.00022900
Zr       0.00102000       9.99863000       9.99839000      -0.00091900      -0.00095300      -0.00113600
Zr       6.51329000      10.00253000      10.00017000       0.00305100      -0.00131200       0.00089900
Zr      13.51648000      10.00287000      10.00001000      -0.00326000      -0.00019200      -0.00076700
O        1.50353000      10.93151000       9.06921000       0.19396500      -0.14697600       0.14588000
O        8.27393000      10.86702000       9.13849000      -0.05107600      -0.02755600       0.02710400
O       15.25327000      10.86712000       9.13734000      -0.03171100      -0.00583700       0.00478700
O        1.50337000       9.06756000      10.92965000       0.19537500       0.14715400      -0.14867000
O        8.27200000       9.13917000      10.86189000      -0.05681700       0.02732500      -0.02712600
O       15.25393000       9.13806000      10.86241000      -0.02901600       0.00440200      -0.00522300
O        4.77644000      10.86415000      10.86468000       0.03146300      -0.00471700      -0.00383600
O       11.75752000      10.86492000      10.86397000       0.05566800      -0.02754700      -0.02888800
O       18.52806000      10.93026000      10.93092000      -0.19649200      -0.14417900      -0.14462300
O        4.77622000       9.13902000       9.13591000       0.02791300       0.00300700       0.00529700
O       11.75663000       9.14134000       9.13611000       0.05426000       0.02867600       0.02777900
O       18.52440000       9.07012000       9.06684000      -0.19068200       0.14792000       0.14773100
18
Lattice="20.027634 0.0 0.0 0.0 20.0 0.0 0.0 0.0 20.0" Properties=species:S:1:pos:R:3:forces:R:3 energy=-153.73984618 stress="-80.15758 -0.0045 0.00422 -0.0045 -0.83322 0.00333 0.00422 0.00333 -0.83243" pbc="T T T"
Zr       3.00567000      10.00064000      10.00040000       5.32128000       0.00078800       0.00043500
Zr      10.01491000      10.00320000      10.00011000       0.00037600       0.00018300      -0.00013400
Zr      17.02396000      10.00197000       9.99955000      -5.32381100       0.00027400       0.00019000
Zr       0.00102000       9.99863000       9.99839000      -0.00101300      -0.00082700      -0.00114500
Zr       6.51193000      10.00244000      10.00022000       0.00605100      -0.00108300       0.00051700
Zr      13.51784000      10.00286000       9.99997000      -0.00590500      -0.00021800      -0.00050800
O        1.50353000      10.93151000       9.06921000       0.19536700      -0.14791100       0.14681900
O        8.27028000      10.86542000       9.14006000      -0.00990800       0.00143900      -0.00078700
O       15.25199000      10.86714000       9.13726000      -0.00303300      -0.00175800       0.00011300
O        1.50337000       9.06756000      10.92965000       0.19682100       0.14830000      -0.14975900
O        8.26796000       9.14073000      10.86034000      -0.01641000      -0.00225700       0.00187200
O       15.25284000       9.13796000      10.86246000      -0.00087900       0.00106900      -0.00122000
O        4.77772000      10.86421000      10.86482000       0.00183200      -0.00203800      -0.00131200
O       11.76147000      10.86333000      10.86230000       0.01668200       0.00229900       0.00241900
O       18.52806000      10.93026000      10.93092000      -0.19795100      -0.14508100      -0.14559200
O        4.77725000       9.13883000       9.13587000      -0.00042200       0.00013200       0.00231900
O       11.76048000       9.14299000       9.13770000       0.01312100      -0.00234100      -0.00301500
O       18.52440000       9.07012000       9.06684000      -0.19219700       0.14902900       0.14878800
18
Lattice="20.027634 0.0 0.0 0.0 20.0 0.0 0.0 0.0 20.0" Properties=species:S:1:pos:R:3:forces:R:3 energy=-153.73986393 stress="-80.13953 -0.00327 0.00344 -0.00327 -0.80983 0.00328 0.00344 0.00328 -0.80798" pbc="T T T"
Zr       3.00567000      10.00064000      10.00040000       5.32292700       0.00080900       0.00047400
Zr      10.01491000      10.00320000      10.00011000       0.00039900       0.00038000      -0.00022100
Zr      17.02396000      10.00197000       9.99955000      -5.32541600       0.00030100       0.00017700
Zr       0.00102000       9.99863000       9.99839000      -0.00097500      -0.00076000      -0.00115300
Zr       6.51172000      10.00243000      10.00023000       0.00621100      -0.00116200       0.00061500
Zr      13.51805000      10.00286000       9.99996000      -0.00580400      -0.00030800      -0.00033900
O        1.50353000      10.93151000       9.06921000       0.19547800      -0.14799600       0.14696000
O        8.26972000      10.86518000       9.14031000      -0.00360500       0.00496000      -0.00484400
O       15.25179000      10.86714000       9.13725000       0.00074500      -0.00081500      -0.00034900
O        1.50337000       9.06756000      10.92965000       0.19693600       0.14854900      -0.14994000
O        8.26734000       9.14097000      10.86011000      -0.01022200      -0.00606900       0.00596500
O       15.25267000       9.13794000      10.86247000       0.00291000       0.00039300      -0.00084500
O        4.77791000      10.86422000      10.86484000      -0.00201700      -0.00161500      -0.00094000
O       11.76208000      10.86309000      10.86204000       0.00970300       0.00670100       0.00686500
O       18.52806000      10.93026000      10.93092000      -0.19793100      -0.14516600      -0.14576100
O        4.77741000       9.13880000       9.13587000      -0.00438200      -0.00015300       0.00197600
O       11.76107000       9.14325000       9.13794000       0.00723000      -0.00731900      -0.00758600
O       18.52440000       9.07012000       9.06684000      -0.19218700       0.14927000       0.14894600
18
Lattice="20.027634 0.0 0.0 0.0 20.0 0.0 0.0 0.0 20.0" Properties=species:S:1:pos:R:3:forces:R:3 energy=-153.73986597 stress="-80.14247 -0.00333 0.00369 -0.00333 -0.81247 0.00351 0.00369 0.00351 -0.81096" pbc="T T T"
Zr       3.00567000      10.00064000      10.00040000       5.32310800       0.00079600       0.00049800
Zr      10.01491000      10.00320000      10.00011000       0.00040800       0.00038200      -0.00021100
Zr      17.02396000      10.00197000       9.99955000      -5.32555400       0.00029000       0.00019200
Zr       0.00102000       9.99863000       9.99839000      -0.00095500      -0.00077300      -0.00113400
Zr       6.51170000      10.00243000      10.00023000       0.00629100      -0.00115600       0.00061600
Zr      13.51807000      10.00286000       9.99996000      -0.00587800      -0.00034300      -0.00033100
O        1.50353000      10.93151000       9.06921000       0.19552600      -0.14791600       0.14688700
O        8.26968000      10.86516000       9.14032000      -0.00306100       0.00551300      -0.00538900
O       15.25178000      10.86714000       9.13725000       0.00112000      -0.00088700      -0.00024200
O        1.50337000       9.06756000      10.92965000       0.19698400       0.14845200      -0.14983400
O        8.26730000       9.14099000      10.86009000      -0.01008500      -0.00671800       0.00667300
O       15.25265000       9.13794000      10.86247000       0.00320800       0.00047800      -0.00090300
O        4.77793000      10.86422000      10.86484000      -0.00235400      -0.00171400      -0.00103900
O       11.76212000      10.86307000      10.86202000       0.00928500       0.00744900       0.00707800
O       18.52806000      10.93026000      10.93092000      -0.19794000      -0.14508600      -0.14565300
O        4.77742000       9.13880000       9.13587000      -0.00463000      -0.00003700       0.00206200
O       11.76112000       9.14327000       9.13796000       0.00672100      -0.00790100      -0.00814400
O       18.52440000       9.07012000       9.06684000      -0.19219600       0.14917200       0.14887400
18
Lattice="20.027634 0.0 0.0 0.0 20.0 0.0 0.0 0.0 20.0" Properties=species:S:1:pos:R:3:forces:R:3 energy=-153.73988597 stress="-80.15078 -0.00366 0.00439 -0.00366 -0.82179 0.00203 0.00439 0.00203 -0.82089" pbc="T T T"
Zr       3.00567000      10.00064000      10.00040000       5.32545800       0.00038400       0.00068100
Zr      10.01494000      10.00322000      10.00010000       0.00133300      -0.00029400      -0.00005400
Zr      17.02396000      10.00197000       9.99955000      -5.32792300       0.00013800      -0.00006500
Zr       0.00102000       9.99863000       9.99839000      -0.00042800      -0.00089400      -0.00113400
Zr       6.51204000      10.00235000      10.00027000      -0.00554700      -0.00074200       0.00028800
Zr      13.51776000      10.00284000       9.99994000       0.00535900      -0.00026300      -0.00064300
O        1.50353000      10.93151000       9.06921000       0.19425500      -0.14747100       0.14623200
O        8.26933000      10.86544000       9.14005000       0.00774000      -0.00201900       0.00170300
O       15.25179000      10.86708000       9.13723000      -0.00003100      -0.00055300      -0.00036700
O        1.50337000       9.06756000      10.92965000       0.19573400       0.14775000      -0.14929200
O        8.26649000       9.14063000      10.86044000      -0.00053300       0.00118600      -0.00097500
O       15.25281000       9.13796000      10.86241000       0.00199800       0.00001400      -0.00034700
O        4.77783000      10.86412000      10.86478000       0.00033200      -0.00058600       0.00012000
O       11.76287000      10.86347000      10.86239000      -0.00252800      -0.00173100      -0.00212900
O       18.52806000      10.93026000      10.93092000      -0.19692000      -0.14471800      -0.14512000
O        4.77718000       9.13879000       9.13600000      -0.00257300      -0.00063000       0.00091400
O       11.76171000       9.14284000       9.13752000      -0.00450300       0.00190800       0.00177300
O       18.52440000       9.07012000       9.06684000      -0.19122500       0.14852000       0.14841500
