18
Lattice="19.527634 0.0 0.0 0.0 20.0 0.0 0.0 0.0 20.0" Properties=species:S:1:pos:R:3:forces:R:3 energy=-156.21775352 stress="-64.61097 -0.01045 0.00668 -0.01045 -3.00331 0.00114 0.00668 0.00114 -3.00249" pbc="T T T"
Zr       3.00567000      10.00064000      10.00040000       5.06145900       0.00356800      -0.00210500
Zr       9.76487000      10.00343000      10.00038000       0.00150200       0.00128800      -0.00177500
Zr      16.52396000      10.00197000       9.99955000      -5.06000800      -0.00077800       0.00033900
Zr       0.00102000       9.99863000       9.99839000       0.00054800      -0.00046200      -0.00084800
Zr       6.42530000      10.00326000       9.99965000      -0.34736800      -0.00111700       0.00066500
Zr      13.10451000      10.00290000      10.00014000       0.34626000       0.00007100       0.00013100
O        1.50353000      10.93151000       9.06921000       0.22076800      -0.16543300       0.16469900
O        8.09715000      10.89416000       9.11193000       0.03129600      -0.24044500       0.23895100
O       14.76943000      10.89388000       9.11063000       0.39903900      -0.34347500       0.34289600
O        1.50337000       9.06756000      10.92965000       0.22180100       0.16575900      -0.16592400
O        8.09633000       9.11300000      10.88796000       0.02945300       0.23810800      -0.23693400
O       14.76951000       9.11113000      10.88924000       0.39921900       0.34368400      -0.34268800
O        4.75994000      10.89140000      10.89132000      -0.39847100      -0.34447700      -0.34424200
O       11.43350000      10.89138000      10.89073000      -0.03179800      -0.23833300      -0.23899300
O       18.02806000      10.93026000      10.93092000      -0.22556200      -0.16303800      -0.16412000
O        4.76067000       9.11279000       9.10852000      -0.39837800       0.34315000       0.34545500
O       11.43273000       9.11501000       9.11003000      -0.03057200       0.23672700       0.23798500
O       18.02440000       9.07012000       9.06684000      -0.21918800       0.16520400       0.16650900
18
Lattice="19.527634 0.0 0.0 0.0 20.0 0.0 0.0 0.0 20.0" Properties=species:S:1:pos:R:3:forces:R:3 energy=-156.28555793 stress="-63.00771 -0.00998 0.00357 -0.00998 -0.87677 0.00216 0.00357 0.00216 -0.87939" pbc="T T T"
Zr       3.00567000      10.00064000      10.00040000       4.79800400       0.00331000      -0.00170000
Zr       9.76495000      10.00349000      10.00030000      -0.00123000      -0.00072100      -0.00014300
Zr      16.52396000      10.00197000       9.99955000      -4.79610600      -0.00069700       0.00034800
Zr       0.00102000       9.99863000       9.99839000       0.00063100      -0.00048900      -0.00074800
Zr       6.40854000      10.00320000       9.99968000       0.00598900      -0.00271400       0.00121900
Zr      13.12121000      10.00291000      10.00015000      -0.00491800      -0.00162900       0.00010900
O        1.50353000      10.93151000       9.06921000       0.17943000      -0.13663200       0.13588500
O        8.09866000      10.88256000       9.12346000      -0.12704900      -0.01668600       0.01448600
O       14.78868000      10.87731000       9.12717000       0.30475300      -0.00246000       0.00255800
O        1.50337000       9.06756000      10.92965000       0.18044700       0.13676200      -0.13704600
O        8.09775000       9.12448000      10.87653000      -0.12466200       0.01588200      -0.01616700
O       14.78877000       9.12771000      10.87270000       0.30532300       0.00368800      -0.00418900
O        4.74072000      10.87478000      10.87472000      -0.30556600      -0.00328800      -0.00198400
O       11.43196000      10.87988000      10.87920000       0.12755800      -0.01389300      -0.01502800
O       18.02806000      10.93026000      10.93092000      -0.18415700      -0.13433700      -0.13519300
O        4.74145000       9.12934000       9.12519000      -0.30633900       0.00173100       0.00331500
O       11.43125000       9.12643000       9.12151000       0.12573800       0.01592300       0.01662200
O       18.02440000       9.07012000       9.06684000      -0.17784500       0.13624900       0.13765400
18
Lattice="19.527634 0.0 0.0 0.0 20.0 0.0 0.0 0.0 20.0" Properties=species:S:1:pos:R:3:forces:R:3 energy=-156.28886909 stress="-62.52422 -0.00998 0.00387 -0.00998 -0.28022 0.00308 0.00387 0.00308 -0.2819" pbc="T T T"
Zr       3.00567000      10.00064000      10.00040000       4.71585900       0.00385100      -0.00161500
Zr       9.76497000      10.00351000      10.00027000      -0.00176000      -0.00067200       0.00028600
Zr      16.52396000      10.00197000       9.99955000      -4.71336900      -0.00005900       0.00031700
Zr       0.00102000       9.99863000       9.99839000       0.00088900       0.00012000      -0.00074900
Zr       6.40401000      10.00319000       9.99969000       0.10496100      -0.00153300       0.00129900
Zr      13.12573000      10.00291000      10.00015000      -0.10324900      -0.00065200       0.00026700
O        1.50353000      10.93151000       9.06921000       0.16820900      -0.12796100       0.12779800
O        8.09907000      10.87942000       9.12658000      -0.16933100       0.04425900      -0.04677600
O       14.79388000      10.87283000       9.13164000       0.27461500       0.09381200      -0.09581000
O        1.50337000       9.06756000      10.92965000       0.16922100       0.12927800      -0.12900600
O        8.09814000       9.12759000      10.87344000      -0.16967700      -0.04569600       0.04573100
O       14.79397000       9.13219000      10.86823000       0.27433900      -0.09477100       0.09504800
O        4.73552000      10.87029000      10.87023000      -0.27581800       0.09475900       0.09564400
O       11.43155000      10.87678000      10.87608000       0.17033100       0.04573600       0.04478100
O       18.02806000      10.93026000      10.93092000      -0.17244100      -0.12570100      -0.12713900
O        4.73625000       9.13382000       9.12969000      -0.27710100      -0.09777200      -0.09421800
O       11.43085000       9.12952000       9.12461000       0.17046800      -0.04577100      -0.04542000
O       18.02440000       9.07012000       9.06684000      -0.16614700       0.12877300       0.12956100
18
Lattice="19.527634 0.0 0.0 0.0 20.0 0.0 0.0 0.0 20.0" Properties=species:S:1:pos:R:3:forces:R:3 energy=-156.30401854 stress="-62.71835 -0.01088 0.00518 -0.01088 -0.31863 0.00119 0.00518 0.00119 -0.31861" pbc="T T T"
Zr       3.00567000      10.00064000      10.00040000       4.55872200       0.00260500      -0.00122300
Zr       9.76490000      10.00349000      10.00027000       0.00134400      -0.00159100      -0.00000800
Zr      16.52396000      10.00197000       9.99955000      -4.55678300      -0.00089500       0.00027700
Zr       0.00102000       9.99863000       9.99839000       0.00099600      -0.00063900      -0.00063400
Zr       6.40522000      10.00310000       9.99977000      -0.26413600      -0.00224200       0.00045400
Zr      13.12459000      10.00288000      10.00017000       0.26192300      -0.00123000      -0.00031200
O        1.50353000      10.93151000       9.06921000       0.13221900      -0.10671800       0.10576600
O        8.09083000      10.87882000       9.12704000      -0.06134400       0.03439400      -0.03374700
O       14.81258000      10.87352000       9.13084000       0.02441500       0.07476600      -0.07613100
O        1.50337000       9.06756000      10.92965000       0.13330200       0.10637300      -0.10687300
O        8.08986000       9.12809000      10.87295000      -0.05896800      -0.03280800       0.03314900
O       14.81266000       9.13145000      10.86900000       0.02566200      -0.07486400       0.07433800
O        4.71677000      10.87102000      10.87100000      -0.02432000       0.07553100       0.07703600
O       11.43983000      10.87627000      10.87552000       0.06082200       0.03472300       0.03389600
O       18.02806000      10.93026000      10.93092000      -0.13736400      -0.10454000      -0.10504200
O        4.71743000       9.13292000       9.12900000      -0.02574600      -0.07660600      -0.07530900
O       11.43916000       9.13000000       9.12513000       0.06035000      -0.03215600      -0.03325600
O       18.02440000       9.07012000       9.06684000      -0.13109400       0.10589600       0.10761700
18
Lattice="19.527634 0.0 0.0 0.0 20.0 0.0 0.0 0.0 20.0" Properties=species:S:1:pos:R:3:forces:R:3 energy=-156.30428639 stress="-62.7329 -0.01099 0.00387 -0.01099 -0.31755 0.00043 0.00387 0.00043 -0.31925" pbc="T T T"
Zr       3.00567000      10.00064000      10.00040000       4.53228700       0.00258400      -0.00126500
Zr       9.76488000      10.00349000      10.00027000       0.00187800      -0.00155900      -0.00016100
Zr      16.52396000      10.00197000       9.99955000      -4.53033200      -0.00085300       0.00016600
Zr       0.00102000       9.99863000       9.99839000       0.00106900      -0.00058300      -0.00072100
Zr       6.40541000      10.00308000       9.99978000      -0.32074300      -0.00217400       0.00016600
Zr      13.12441000      10.00287000      10.00017000       0.31778900      -0.00116800      -0.00049100
O        1.50353000      10.93151000       9.06921000       0.12655100      -0.10315600       0.10214900
O        8.08953000      10.87872000       9.12711000      -0.04416400       0.03226200      -0.03211400
O       14.81554000      10.87363000       9.13071000      -0.01662000       0.07252400      -0.07325700
O        1.50337000       9.06756000      10.92965000       0.12764500       0.10290000      -0.10345200
O        8.08855000       9.12817000      10.87287000      -0.04282200      -0.03171900       0.03167900
O       14.81562000       9.13133000      10.86912000      -0.01566200      -0.07274100       0.07219300
O        4.71380000      10.87113000      10.87113000       0.01678900       0.07297200       0.07429600
O       11.44114000      10.87619000      10.87543000       0.04390000       0.03330300       0.03237000
O       18.02806000      10.93026000      10.93092000      -0.13172600      -0.10098700      -0.10162200
O        4.71446000       9.13278000       9.12889000       0.01528700      -0.07380200      -0.07170500
O       11.44047000       9.13008000       9.12521000       0.04433500      -0.03022300      -0.03224200
O       18.02440000       9.07012000       9.06684000      -0.12546100       0.10242200       0.10401100
18
Lattice="19.527634 0.0 0.0 0.0 20.0 0.0 0.0 0.0 20.0" Properties=species:S:1:pos:R:3:forces:R:3 energy=-156.3117017 stress="-63.16141 -0.0099 0.00175 -0.0099 -0.77116 0.001 0.00175 0.001 -0.77143" pbc="T T T"
Zr       3.00567000      10.00064000      10.00040000       4.39816000       0.00244600      -0.00040800
Zr       9.76495000      10.00339000      10.00025000      -0.00022400       0.00060000      -0.00024500
Zr      16.52396000      10.00197000       9.99955000      -4.39767500      -0.00086200      -0.00009300
Zr       0.00102000       9.99863000       9.99839000       0.00073200      -0.00064500      -0.00065100
Zr       6.38918000      10.00292000       9.99982000      -0.02840200       0.00027800      -0.00000000
Zr      13.14053000      10.00279000      10.00015000       0.02894800       0.00052600       0.00024700
O        1.50353000      10.93151000       9.06921000       0.12717900      -0.10323100       0.10213200
O        8.08319000      10.88012000       9.12565000      -0.05830200      -0.03562200       0.03262800
O       14.82379000      10.87777000       9.12648000      -0.03185300       0.01350000      -0.01181500
O        1.50337000       9.06756000      10.92965000       0.12836500       0.10282600      -0.10338000
O        8.08227000       9.12675000      10.87430000      -0.05862600       0.03168000      -0.03230800
O       14.82391000       9.12716000      10.87328000      -0.03082000      -0.01146800       0.01111900
O        4.70553000      10.87531000      10.87540000       0.03417000       0.01002000       0.01119600
O       11.44749000      10.87769000      10.87686000       0.05631700      -0.03422900      -0.03401200
O       18.02806000      10.93026000      10.93092000      -0.13241900      -0.10102400      -0.10150300
O        4.70608000       9.12847000       9.12480000       0.03386200      -0.01080800      -0.00956300
O       11.44685000       9.12873000       9.12377000       0.05678000       0.03374300       0.03257700
O       18.02440000       9.07012000       9.06684000      -0.12619100       0.10227100       0.10407800
18
Lattice="19.527634 0.0 0.0 0.0 20.0 0.0 0.0 0.0 20.0" Properties=species:S:1:pos:R:3:forces:R:3 energy=-156.31176588 stress="-63.20251 -0.01187 0.00107 -0.01187 -0.81737 0.00078 0.00107 0.00078 -0.81717" pbc="T T T"
Zr       3.00567000      10.00064000      10.00040000       4.38264800       0.00258000      -0.00031200
Zr       9.76495000      10.00338000      10.00025000      -0.00022200       0.00096600      -0.00024900
Zr      16.52396000      10.00197000       9.99955000      -4.38189300      -0.00071900      -0.00011500
Zr       0.00102000       9.99863000       9.99839000       0.00091600      -0.00051600      -0.00063000
Zr       6.38740000      10.00291000       9.99983000       0.00286200      -0.00001700      -0.00023300
Zr      13.14229000      10.00279000      10.00015000      -0.00183500       0.00069600      -0.00034800
O        1.50353000      10.93151000       9.06921000       0.12759600      -0.10304700       0.10209200
O        8.08250000      10.88027000       9.12549000      -0.05830400      -0.04240300       0.03998200
O       14.82469000      10.87823000       9.12601000      -0.03395500       0.00668700      -0.00544700
O        1.50337000       9.06756000      10.92965000       0.12879400       0.10291700      -0.10331700
O        8.08158000       9.12660000      10.87445000      -0.05925400       0.03826100      -0.03892300
O       14.82482000       9.12670000      10.87374000      -0.03365800      -0.00446400       0.00402100
O        4.70463000      10.87577000      10.87587000       0.03494600       0.00459100       0.00561600
O       11.44818000      10.87786000      10.87701000       0.05650900      -0.04139400      -0.04123500
O       18.02806000      10.93026000      10.93092000      -0.13241100      -0.10083900      -0.10144000
O        4.70516000       9.12799000       9.12435000       0.03559500      -0.00521500      -0.00315400
O       11.44755000       9.12858000       9.12361000       0.05785400       0.03955700       0.03964100
O       18.02440000       9.07012000       9.06684000      -0.12618700       0.10235800       0.10405100
18
Lattice="19.527634 0.0 0.0 0.0 20.0 0.0 0.0 0.0 20.0" Properties=species:S:1:pos:R:3:forces:R:3 energy=-156.31267451 stress="-63.10308 -0.01015 0.0039 -0.01015 -0.70751 0.00237 0.0039 0.00237 -0.70978" pbc="T T T"
Zr       3.00567000      10.00064000      10.00040000       4.39691200       0.00286200       0.00024100
Zr       9.76495000      10.00343000      10.00024000      -0.00090300      -0.00082000      -0.00008000
Zr      16.52396000      10.00197000       9.99955000      -4.39529400       0.00011200      -0.00058000
Zr       0.00102000       9.99863000       9.99839000       0.00080000      -0.00021000      -0.00066500
Zr       6.38580000      10.00289000       9.99982000       0.00462000      -0.00038100       0.00127800
Zr      13.14394000      10.00281000      10.00013000      -0.00338900       0.00079300      -0.00092500
O        1.50353000      10.93151000       9.06921000       0.12953900      -0.10408100       0.10337900
O        8.07868000      10.87815000       9.12747000      -0.01120200      -0.00488700       0.00304100
O       14.82377000      10.87903000       9.12526000      -0.00169800      -0.00246600       0.00335000
O        1.50337000       9.06756000      10.92965000       0.13079200       0.10458600      -0.10467800
O        8.07772000       9.12850000      10.87252000      -0.00972600       0.00254300      -0.00092000
O       14.82391000       9.12601000      10.87440000      -0.00152300       0.00376600      -0.00390300
O        4.70560000      10.87647000      10.87664000       0.00262300      -0.00396700      -0.00371400
O       11.45190000      10.87580000      10.87496000       0.00917300      -0.00352100      -0.00303500
O       18.02806000      10.93026000      10.93092000      -0.13459000      -0.10190700      -0.10272500
O        4.70616000       9.12725000       9.12373000       0.00340100       0.00216400       0.00379800
O       11.45134000       9.13056000       9.12558000       0.00881400       0.00146700       0.00076600
O       18.02440000       9.07012000       9.06684000      -0.12834800       0.10394700       0.10537200
18
Lattice="19.527634 0.0 0.0 0.0 20.0 0.0 0.0 0.0 20.0" Properties=species:S:1:pos:R:3:forces:R:3 energy=-156.31268197 stress="-63.09792 -0.01008 0.00394 -0.01008 -0.69932 0.00218 0.00394 0.00218 -0.70153" pbc="T T T"
Zr       3.00567000      10.00064000      10.00040000       4.39846800       0.00285600       0.00033200
Zr       9.76495000      10.00343000      10.00024000      -0.00099700      -0.00106800      -0.00003800
Zr      16.52396000      10.00197000       9.99955000      -4.39671600       0.00017200      -0.00061900
Zr       0.00102000       9.99863000       9.99839000       0.00081500      -0.00020700      -0.00064300
Zr       6.38561000      10.00289000       9.99982000       0.00415600      -0.00050700       0.00140900
Zr      13.14413000      10.00282000      10.00013000      -0.00284000       0.00073700      -0.00096900
O        1.50353000      10.93151000       9.06921000       0.12991000      -0.10431200       0.10362400
O        8.07824000      10.87791000       9.12770000      -0.00336100       0.00066100      -0.00233500
O       14.82366000      10.87913000       9.12518000       0.00276000      -0.00411200       0.00495500
O        1.50337000       9.06756000      10.92965000       0.13117000       0.10481600      -0.10488800
O        8.07727000       9.12872000      10.87230000      -0.00203600      -0.00286400       0.00357900
O       14.82381000       9.12593000      10.87448000       0.00288800       0.00524100      -0.00532800
O        4.70572000      10.87655000      10.87673000      -0.00192800      -0.00543700      -0.00523000
O       11.45233000      10.87556000      10.87472000       0.00153900       0.00208600       0.00256400
O       18.02806000      10.93026000      10.93092000      -0.13494900      -0.10214900      -0.10293700
O        4.70628000       9.12716000       9.12366000      -0.00116900       0.00362100       0.00515100
O       11.45178000       9.13078000       9.12581000       0.00099400      -0.00371100      -0.00425700
O       18.02440000       9.07012000       9.06684000      -0.12870300       0.10417800       0.10563000
