60
Lattice="5.146 0.0 0.0 0.0 5.205 0.0 0.0 0.0 45.561243" Properties=species:S:1:pos:R:3:forces:R:3 energy=-571.27585389 stress="4.84915 -16.46125 -0.74224 -16.46125 6.91846 0.38571 -0.74224 0.38571 6.48925" pbc="T T T"
O        2.54238000       3.45169000      23.61653000       0.00910300       0.01138600      -0.06070800
O        2.97403000       4.35320000      20.98383000       0.02244800       0.02781000      -0.16337700
O        3.11650000       0.85180000      24.57741000      -0.02244800      -0.02781000       0.16337700
O        0.21818000       3.94143000      22.66170000       0.05136100       0.01803800      -0.00475000
O        0.72635000       1.26357000      22.89954000      -0.05136100      -0.01803800       0.00475000
O        1.15824000       1.34087000      20.26259000      -0.03047400       0.01075900      -0.06803000
O        4.93229000       3.86413000      25.29865000       0.03047400      -0.01075900       0.06803000
O        2.66618000       1.72587000      27.24302000      -0.02735000      -0.02590400       0.12808500
O        1.71828000       3.51831000      28.83559000       0.01556300      -0.00226900      -0.01351200
O        2.12056000       4.33403000      26.23281000       0.04065400       0.01447700      -0.01949600
O        4.55135000       1.30422000      30.93546000      -0.05962600      -0.01540600       0.05541500
O        2.19386000       0.93006000      29.96498000       0.02426900      -0.00134500       0.07985800
O        4.99059000       1.27251000      28.22388000      -0.02148500      -0.00506900      -0.00025800
O        0.29077000       1.33492000      25.54862000      -0.06086000      -0.00896600       0.04700100
O        4.10572000       3.85575000      30.56309000       0.03638600      -0.08266600       0.01856700
O        1.73052000       1.58845000      32.71944000       0.00896100       0.08123200       0.04357200
O        1.06713000       3.69380000      34.09893000      -0.07193300      -0.04627400      -0.03143800
O        1.35597000       4.18377000      31.44557000       0.00221000       0.13067500       0.02636900
O        1.31755000       1.05764000      35.51110000       0.04135500      -0.04718400       0.05891700
O        3.78489000       3.96643000      33.17840000       0.02788900       0.02127100      -0.01281100
O        4.09728000       1.29865000      33.74102000       0.01332400      -0.01446800       0.01453000
O        4.50331000       3.94057000      27.93186000       0.05570300       0.03655000       0.06000600
O        3.54815000       1.75331000      21.94471000      -0.00910300      -0.01138600       0.06070800
O        3.70156000       3.68407000      35.80287000      -0.03234700       0.01063300      -0.00680400
O       -0.12260000       1.51120000      11.46232000       0.07193300       0.04627400       0.03143800
O        2.30564000       1.23857000      12.38285000      -0.02788900      -0.02127100       0.01281100
O        2.38897000       1.52093000       9.75837000       0.03234700      -0.01063300       0.00680400
O        1.53919000       3.90078000      14.62578000       0.05962600       0.01540600      -0.05541500
O        0.65376000       3.87008000      20.01262000       0.06086000       0.00896600      -0.04700100
O        4.77299000       4.14736000      10.05014000      -0.04135500       0.04718400      -0.05891700
O        4.36001000       3.61655000      12.84180000      -0.00896100      -0.08123200      -0.04357200
O        1.99325000       3.90635000      11.82023000      -0.01332400       0.01446800      -0.01453000
O        4.37225000       1.68669000      16.72565000      -0.01556300       0.00226900       0.01351200
O        4.73456000       1.02123000      14.11567000      -0.00221000      -0.13067500      -0.02636900
O        3.89667000       4.27494000      15.59626000      -0.02426900       0.00134500      -0.07985800
O        3.96998000       0.87097000      19.32843000      -0.04065400      -0.01447700       0.01949600
O        1.09994000       3.93249000      17.33737000       0.02148500       0.00506900       0.00025800
O        1.58722000       1.26443000      17.62939000      -0.05570300      -0.03655000      -0.06000600
O        1.98481000       1.34925000      14.99816000      -0.03638600       0.08266600      -0.01856700
O        3.42435000       3.47913000      18.31822000       0.02735000       0.02590400      -0.12808500
Zr       2.52798000       2.41249000      34.66613000      -0.02182400       0.03448100       0.01559500
Zr       0.11024000       2.81387000      32.25624000       0.00018100      -0.04553500       0.06670000
Zr       4.93532000       4.96430000      34.88509000      -0.01947400       0.02038000       0.00566300
Zr       2.96187000       0.21110000      31.89756000       0.00138400      -0.03307200      -0.06478400
Zr       0.83430000       2.39113000      13.30500000      -0.00018100       0.04553500      -0.06670000
Zr       3.56255000       2.79251000      10.89511000       0.02182400      -0.03448100      -0.01559500
Zr       3.12867000       4.99390000      13.66368000      -0.00138400       0.03307200       0.06478400
Zr       4.71956000       0.22495000      21.25155000       0.00503700      -0.00556700       0.09225500
Zr       2.23888000       4.98420000      19.02464000       0.05657000      -0.00479000       0.09809200
Zr       2.68193000       2.82413000      16.36502000       0.08843000       0.03615900      -0.00045900
Zr       3.40860000       2.38087000      29.19622000      -0.08843000      -0.03615900       0.00045900
Zr       0.93115000       2.83314000      26.94527000       0.07988700      -0.04899500       0.01668200
Zr       0.50245000       4.96320000      29.59676000       0.09243100       0.04301900       0.09274200
Zr       3.85165000       0.22080000      26.53660000      -0.05657000       0.00479000      -0.09809200
Zr       0.01338000       2.37186000      18.61597000      -0.07988700       0.04899500      -0.01668200
Zr       4.28685000       2.37932000      23.89369000       0.01057600       0.03139000      -0.14309200
Zr       1.80368000       2.82568000      21.66756000      -0.01057600      -0.03139000       0.14309200
Zr       1.37097000       4.98005000      24.30969000      -0.00503700       0.00556700      -0.09225500
Zr       0.44208000       0.24180000      15.96448000      -0.09243100      -0.04301900      -0.09274200
Zr       1.15521000       0.24070000      10.67615000       0.01947400      -0.02038000      -0.00566300
