60
Lattice="5.146 0.0 0.0 0.0 5.205 0.0 0.0 0.0 45.561243" Properties=species:S:1:pos:R:3:forces:R:3 energy=-571.31472578 stress="5.49724 -16.54861 -0.06556 -16.54861 5.12162 0.22131 -0.06556 0.22131 5.75115" pbc="T T T"
O        2.54911000       3.46190000      23.60235000       0.01113600       0.06632000      -0.00783500
O        2.98605000       4.34187000      20.95707000       0.02790100      -0.05649800      -0.02916800
O        3.10448000       0.86313000      24.60417000      -0.02790100       0.05649800       0.02916800
O        0.22346000       3.94220000      22.66241000       0.00497400      -0.00007400      -0.02585300
O        0.72107000       1.26280000      22.89884000      -0.00497400       0.00007400       0.02585300
O        1.15532000       1.34438000      20.25454000      -0.00926100      -0.00476100      -0.00715200
O        4.93521000       3.86062000      25.30671000       0.00926100       0.00476100       0.00715200
O        2.64712000       1.70476000      27.28317000      -0.01554200      -0.05881000       0.03171200
O        1.73339000       3.53983000      28.83438000       0.00693900       0.02380600       0.03746700
O        2.12876000       4.32007000      26.22437000       0.01028600      -0.06780500       0.01956500
O        4.54260000       1.28696000      30.96539000       0.02743000       0.01402700       0.01246700
O        2.17980000       0.95142000      30.01214000      -0.01249700      -0.01154200      -0.01506100
O        4.98337000       1.27720000      28.23972000       0.01060600       0.00702800       0.04951800
O        0.28077000       1.33167000      25.55618000       0.00761900       0.00637500       0.05091500
O        4.12062000       3.83669000      30.57538000       0.01338400       0.01630400       0.03401200
O        1.72185000       1.57616000      32.75996000       0.06423800       0.03348400       0.02145900
O        1.06428000       3.69213000      34.10944000      -0.03155800       0.00257000       0.03461300
O        1.36694000       4.17988000      31.45615000      -0.08737600      -0.03056500       0.05541800
O        1.32458000       1.06262000      35.55370000       0.00960400      -0.01748300      -0.01801800
O        3.79551000       3.96430000      33.18670000      -0.01827900       0.00599300       0.04248200
O        4.09493000       1.29885000      33.77034000       0.01181100       0.04522000       0.00775000
O        4.51281000       3.94700000      27.94712000       0.01766900      -0.00864800      -0.00684400
O        3.54142000       1.74310000      21.95889000      -0.01113600      -0.06632000       0.00783500
O        3.69120000       3.71073000      35.81357000       0.00717200      -0.00495500       0.01975200
O       -0.11975000       1.51287000      11.45180000       0.03155800      -0.00257000      -0.03461300
O        2.29503000       1.24070000      12.37454000       0.01827900      -0.00599300      -0.04248200
O        2.39933000       1.49427000       9.74767000      -0.00717200       0.00495500      -0.01975200
O        1.54793000       3.91804000      14.59586000      -0.02743000      -0.01402700      -0.01246700
O        0.66377000       3.87333000      20.00507000      -0.00761900      -0.00637500      -0.05091500
O        4.76595000       4.14238000      10.00754000      -0.00960400       0.01748300       0.01801800
O        4.36868000       3.62884000      12.80128000      -0.06423800      -0.03348400      -0.02145900
O        1.99560000       3.90615000      11.79090000      -0.01181100      -0.04522000      -0.00775000
O        4.35714000       1.66517000      16.72686000      -0.00693900      -0.02380600      -0.03746700
O        4.72359000       1.02512000      14.10510000       0.08737600       0.03056500      -0.05541800
O        3.91073000       4.25358000      15.54910000       0.01249700       0.01154200       0.01506100
O        3.96177000       0.88493000      19.33687000      -0.01028600       0.06780500      -0.01956500
O        1.10717000       3.92780000      17.32153000      -0.01060600      -0.00702800      -0.04951800
O        1.57772000       1.25800000      17.61412000      -0.01766900       0.00864800       0.00684400
O        1.96991000       1.36831000      14.98586000      -0.01338400      -0.01630400      -0.03401200
O        3.44342000       3.50024000      18.27807000       0.01554200       0.05881000      -0.03171200
Zr       2.52676000       2.42088000      34.69170000      -0.03494100      -0.04655600       0.02560300
Zr       0.11429000       2.80365000      32.27664000       0.00308700       0.03537800      -0.01606200
Zr       4.94466000       4.97700000      34.90432000       0.00046000      -0.01880400       0.00225000
Zr       2.95859000       0.20461000      31.91904000       0.01724500       0.02615700       0.04855000
Zr       0.83024000       2.40135000      13.28460000      -0.00308700      -0.03537800       0.01606200
Zr       3.56377000       2.78412000      10.86955000       0.03494100       0.04655600      -0.02560300
Zr       3.13194000       5.00039000      13.64221000      -0.01724500      -0.02615700      -0.04855000
Zr       4.72404000       0.22510000      21.24569000      -0.03298000       0.01407500       0.04551100
Zr       2.24511000       4.98601000      19.01794000      -0.01729400      -0.00700800      -0.02111800
Zr       2.69156000       2.82757000      16.34877000      -0.06492900       0.00048800      -0.02838400
Zr       3.39897000       2.37743000      29.21248000       0.06492900      -0.00048800       0.02838400
Zr       0.93187000       2.83094000      26.96219000      -0.02197600       0.00889200      -0.03466700
Zr       0.50852000       4.96724000      29.62035000      -0.04723600      -0.02232000      -0.01165100
Zr       3.84542000       0.21899000      26.54330000       0.01729400       0.00700800       0.02111800
Zr       0.01266000       2.37406000      18.59905000       0.02197600      -0.00889200       0.03466700
Zr       4.28679000       2.38033000      23.89104000      -0.03803600      -0.02407800       0.01087100
Zr       1.80374000       2.82467000      21.67020000       0.03803600       0.02407800      -0.01087100
Zr       1.36649000       4.97990000      24.31555000       0.03298000      -0.01407500      -0.04551100
Zr       0.43601000       0.23776000      15.94089000       0.04723600       0.02232000       0.01165100
Zr       1.14587000       0.22800000      10.65693000      -0.00046000       0.01880400      -0.00225000
