60
Lattice="5.146 0.0 0.0 0.0 5.205 0.0 0.0 0.0 45.561243" Properties=species:S:1:pos:R:3:forces:R:3 energy=-571.32468131 stress="5.78068 -16.54715 -0.08201 -16.54715 4.74304 0.15622 -0.08201 0.15622 5.50462" pbc="T T T"
O        2.55183000       3.46909000      23.59580000       0.04788200       0.05560000      -0.00358000
O        2.99127000       4.33427000      20.94655000       0.03945200      -0.05271900       0.00045000
O        3.09926000       0.87073000      24.61469000      -0.03945200       0.05271900      -0.00045000
O        0.22661000       3.94173000      22.66046000      -0.01915200      -0.00230200      -0.03202800
O        0.71792000       1.26327000      22.90079000       0.01915200       0.00230200       0.03202800
O        1.15215000       1.34485000      20.25337000       0.02962100      -0.00590300       0.02232700
O        4.93838000       3.86015000      25.30787000      -0.02962100       0.00590300      -0.02232700
O        2.64060000       1.69491000      27.29829000      -0.00234200      -0.06466600      -0.02753900
O        1.73763000       3.54588000      28.83622000       0.02036800       0.01142400       0.03596000
O        2.13122000       4.31187000      26.22127000       0.05514000      -0.04853100       0.01019600
O        4.54055000       1.28353000      30.97388000       0.04792100       0.02078800       0.00585200
O        2.17664000       0.95497000      30.02301000       0.00077500      -0.00059900      -0.01227600
O        4.98163000       1.27988000      28.24746000       0.02025200      -0.01889400       0.02353100
O        0.27742000       1.33044000      25.56113000       0.02124000       0.00478200       0.03149800
O        4.12615000       3.83267000      30.58162000      -0.04535800       0.02097700       0.01647900
O        1.72669000       1.57770000      32.77247000       0.01910500       0.02339600      -0.00990800
O        1.05936000       3.69093000      34.11368000       0.03653500      -0.02371200       0.04965900
O        1.36267000       4.18034000      31.46295000      -0.00725100      -0.00308200       0.05342100
O        1.32767000       1.06110000      35.56362000      -0.00442900      -0.01606300      -0.02169500
O        3.79712000       3.96484000      33.19195000      -0.03751400       0.02200100       0.02096900
O        4.09521000       1.30257000      33.77761000       0.02834800       0.01830100       0.01937200
O        4.51846000       3.94791000      27.95043000      -0.03296500      -0.00788700      -0.02151700
O        3.53870000       1.73591000      21.96544000      -0.04788200      -0.05560000       0.00358000
O        3.68992000       3.71726000      35.81805000      -0.00749000      -0.02891100       0.01499000
O       -0.11483000       1.51407000      11.44756000      -0.03653500       0.02371200      -0.04965900
O        2.29341000       1.24016000      12.36929000       0.03751400      -0.02200100      -0.02096900
O        2.40061000       1.48774000       9.74319000       0.00749000       0.02891100      -0.01499000
O        1.54998000       3.92147000      14.58737000      -0.04792100      -0.02078800      -0.00585200
O        0.66712000       3.87456000      20.00012000      -0.02124000      -0.00478200      -0.03149800
O        4.76286000       4.14390000       9.99762000       0.00442900       0.01606300       0.02169500
O        4.36385000       3.62730000      12.78877000      -0.01910500      -0.02339600       0.00990800
O        1.99532000       3.90243000      11.78363000      -0.02834800      -0.01830100      -0.01937200
O        4.35290000       1.65912000      16.72502000      -0.02036800      -0.01142400      -0.03596000
O        4.72787000       1.02466000      14.09829000       0.00725100       0.00308200      -0.05342100
O        3.91389000       4.25003000      15.53823000      -0.00077500       0.00059900       0.01227600
O        3.95931000       0.89313000      19.33997000      -0.05514000       0.04853100      -0.01019600
O        1.10890000       3.92512000      17.31378000      -0.02025200       0.01889400      -0.02353100
O        1.57207000       1.25709000      17.61081000       0.03296500       0.00788700       0.02151700
O        1.96438000       1.37233000      14.97962000       0.04535800      -0.02097700      -0.01647900
O        3.44993000       3.51009000      18.26295000       0.00234200       0.06466600       0.02753900
Zr       2.52278000       2.41948000      34.69880000       0.01766400      -0.00903200       0.04051000
Zr       0.11544000       2.80295000      32.28306000      -0.02356600       0.01739000       0.00009100
Zr       4.94542000       4.97823000      34.90900000      -0.04704100      -0.00144300       0.02723500
Zr       2.95920000       0.20465000      31.92743000      -0.01625000       0.02672500       0.03190300
Zr       0.82909000       2.40205000      13.27818000       0.02356600      -0.01739000      -0.00009100
Zr       3.56776000       2.78552000      10.86245000      -0.01766400       0.00903200      -0.04051000
Zr       3.13133000       5.00035000      13.63381000       0.01625000      -0.02672500      -0.03190300
Zr       4.72354000       0.22606000      21.24496000      -0.00741200       0.00185400       0.01338500
Zr       2.24397000       4.98673000      19.01490000       0.04755200      -0.03242500      -0.08492100
Zr       2.68864000       2.82839000      16.34315000       0.04312900       0.03470700      -0.06030500
Zr       3.40189000       2.37661000      29.21809000      -0.04312900      -0.03470700       0.06030500
Zr       0.93013000       2.83110000      26.96581000       0.05400100      -0.01491000       0.02097600
Zr       0.50643000       4.96583000      29.62734000       0.04358200       0.01247500      -0.01995100
Zr       3.84657000       0.21827000      26.54634000      -0.04755200       0.03242500       0.08492100
Zr       0.01441000       2.37390000      18.59543000      -0.05400100       0.01491000      -0.02097600
Zr       4.28432000       2.37889000      23.89192000       0.00631500      -0.01058900       0.04318700
Zr       1.80621000       2.82611000      21.66932000      -0.00631500       0.01058900      -0.04318700
Zr       1.36699000       4.97894000      24.31628000       0.00741200      -0.00185400      -0.01338500
Zr       0.43810000       0.23917000      15.93390000      -0.04358200      -0.01247500       0.01995100
Zr       1.14511000       0.22677000      10.65225000       0.04704100       0.00144300      -0.02723500
