60
Lattice="5.146 0.0 0.0 0.0 5.205 0.0 0.0 0.0 45.561243" Properties=species:S:1:pos:R:3:forces:R:3 energy=-571.37493312 stress="4.61308 -16.58613 -0.35295 -16.58613 1.79058 0.28842 -0.35295 0.28842 1.94984" pbc="T T T"
O        2.59664000       3.53676000      23.54444000       0.01494700       0.03344900       0.01011500
O        3.03429000       4.26936000      20.87228000       0.03241300      -0.00067700       0.01023500
O        3.05624000       0.93564000      24.68897000      -0.03241300       0.00067700      -0.01023500
O        0.23809000       3.93476000      22.63674000      -0.00491200       0.01647800       0.00090800
O        0.70644000       1.27024000      22.92450000       0.00491200      -0.01647800      -0.00090800
O        1.13904000       1.33894000      20.25400000       0.00373600       0.01168200       0.01144600
O        4.95149000       3.86606000      25.30724000      -0.00373600      -0.01168200      -0.01144600
O        2.61036000       1.63633000      27.37669000      -0.03463200       0.02119600      -0.03841200
O        1.75871000       3.56914000      28.85878000       0.02680400      -0.04293700      -0.01575100
O        2.17346000       4.24524000      26.20156000       0.01142500       0.00813700       0.01350000
O        4.54413000       1.28875000      31.02331000      -0.00978800       0.03643200      -0.00293000
O        2.16830000       0.96902000      30.08274000      -0.00410200      -0.00468500      -0.01981200
O        4.97539000       1.27277000      28.29747000       0.02729300      -0.00197000      -0.03261700
O        0.26730000       1.32273000      25.60405000       0.02469400       0.00331400      -0.01615200
O        4.12538000       3.83968000      30.61705000      -0.03895500      -0.01024400       0.01137600
O        1.73654000       1.59750000      32.81211000      -0.00694600       0.01741900       0.03887100
O        1.05011000       3.68278000      34.17861000      -0.00984800       0.01216400      -0.01593100
O        1.35530000       4.18573000      31.51343000       0.08722900       0.05566200       0.01453000
O        1.33151000       1.04697000      35.60364000       0.00532800       0.01462900       0.00224100
O        3.79463000       3.98165000      33.24127000      -0.02364200       0.00481700       0.01474700
O        4.10537000       1.31919000      33.83051000      -0.00128700      -0.04200100       0.00987200
O        4.53007000       3.93358000      27.97058000      -0.02482000      -0.00775600      -0.03216000
O        3.49389000       1.66824000      22.01680000      -0.01494700      -0.03344900      -0.01011500
O        3.67663000       3.71698000      35.87231000       0.02512100      -0.01291000       0.02152100
O       -0.10558000       1.52222000      11.38264000       0.00984800      -0.01216400       0.01593100
O        2.29590000       1.22335000      12.31998000       0.02364200      -0.00481700      -0.01474700
O        2.41390000       1.48802000       9.68893000      -0.02512100       0.01291000      -0.02152100
O        1.54640000       3.91625000      14.53794000       0.00978800      -0.03643200       0.00293000
O        0.67724000       3.88227000      19.95720000      -0.02469400      -0.00331400       0.01615200
O        4.75902000       4.15803000       9.95760000      -0.00532800      -0.01462900      -0.00224100
O        4.35399000       3.60750000      12.74913000       0.00694600      -0.01741900      -0.03887100
O        1.98516000       3.88581000      11.73073000       0.00128700       0.04200100      -0.00987200
O        4.33182000       1.63586000      16.70247000      -0.02680400       0.04293700       0.01575100
O        4.73523000       1.01927000      14.04782000      -0.08722900      -0.05566200      -0.01453000
O        3.92223000       4.23598000      15.47850000       0.00410200       0.00468500       0.01981200
O        3.91707000       0.95976000      19.35968000      -0.01142500      -0.00813700      -0.01350000
O        1.11514000       3.93223000      17.26377000      -0.02729300       0.00197000       0.03261700
O        1.56046000       1.27142000      17.59067000       0.02482000       0.00775600       0.03216000
O        1.96515000       1.36532000      14.94420000       0.03895500       0.01024400      -0.01137600
O        3.48017000       3.56867000      18.18456000       0.03463200      -0.02119600       0.03841200
Zr       2.52237000       2.41778000      34.75014000      -0.04099400      -0.00842800       0.03784600
Zr       0.11009000       2.81189000      32.33269000      -0.02205700      -0.02806600       0.01690000
Zr       4.93511000       4.97626000      34.96219000      -0.01088800       0.00807200      -0.00943300
Zr       2.95547000       0.21930000      31.97495000       0.01632800      -0.02373100      -0.00248400
Zr       0.83445000       2.39311000      13.22855000       0.02205700       0.02806600      -0.01690000
Zr       3.56817000       2.78722000      10.81110000       0.04099400       0.00842800      -0.03784600
Zr       3.13506000       4.98570000      13.58630000      -0.01632800       0.02373100       0.00248400
Zr       4.71867000       0.22870000      21.23711000      -0.02233500       0.01577000       0.01241600
Zr       2.24868000       4.98763000      18.97884000       0.00053000       0.02746700      -0.04782500
Zr       2.68640000       2.83734000      16.29772000       0.02978900      -0.00861900      -0.08265400
Zr       3.40413000       2.36766000      29.26352000      -0.02978900       0.00861900       0.08265400
Zr       0.94048000       2.82413000      26.99380000       0.02996400       0.00343900       0.01300200
Zr       0.51293000       4.96125000      29.66682000       0.01619500       0.04106000      -0.00446000
Zr       3.84186000       0.21737000      26.58240000      -0.00053000      -0.02746700       0.04782500
Zr       0.00405000       2.38087000      18.56744000      -0.02996400      -0.00343900      -0.01300200
Zr       4.27866000       2.37368000      23.90829000      -0.00384700       0.02258900       0.02044600
Zr       1.81187000       2.83132000      21.65296000       0.00384700      -0.02258900      -0.02044600
Zr       1.37186000       4.97630000      24.32413000       0.02233500      -0.01577000      -0.01241600
Zr       0.43161000       0.24375000      15.89442000      -0.01619500      -0.04106000       0.00446000
Zr       1.15542000       0.22874000      10.59906000       0.01088800      -0.00807200       0.00943300
