60
Lattice="5.146 0.0 0.0 0.0 5.205 0.0 0.0 0.0 45.561243" Properties=species:S:1:pos:R:3:forces:R:3 energy=-571.38072567 stress="3.91522 -16.446 -0.32458 -16.446 1.2632 0.20509 -0.32458 0.20509 0.66482" pbc="T T T"
O        2.60620000       3.54867000      23.53870000      -0.00039800      -0.00412200      -0.00147800
O        3.04075000       4.26041000      20.86452000      -0.00229800       0.00007800      -0.00249200
O        3.04979000       0.94458000      24.69673000       0.00229800      -0.00007800       0.00249200
O        0.24104000       3.93427000      22.63504000      -0.00229600       0.00549500       0.00128000
O        0.70349000       1.27073000      22.92621000       0.00229600      -0.00549500      -0.00128000
O        1.13572000       1.33885000      20.25449000       0.00301300       0.00514300       0.00013700
O        4.95481000       3.86615000      25.30675000      -0.00301300      -0.00514300      -0.00013700
O        2.60938000       1.63510000      27.38101000       0.00244000       0.00189400       0.00191000
O        1.75851000       3.56520000      28.86396000      -0.00605900       0.00592200       0.00532200
O        2.17769000       4.24250000      26.20341000       0.00037400       0.00672200      -0.00002700
O        4.54154000       1.29851000      31.02781000       0.00772800       0.00698000       0.00825600
O        2.16876000       0.96895000      30.08608000      -0.00070000       0.00114900       0.00687300
O        4.97646000       1.27085000      28.30009000       0.00528800      -0.00504200       0.00547600
O        0.26839000       1.32145000      25.60579000      -0.00007700       0.00734300       0.00414700
O        4.12382000       3.84771000      30.62511000      -0.00028400      -0.00636800      -0.00262400
O        1.73569000       1.60030000      32.82172000      -0.02258900       0.01064300       0.00597900
O        1.04880000       3.68648000      34.18465000      -0.00405300       0.00197500       0.00490500
O        1.36016000       4.19107000      31.52135000      -0.00683600       0.00235400       0.00387500
O        1.32825000       1.04754000      35.61314000      -0.00414900       0.00610600       0.00261400
O        3.79012000       3.97982000      33.25168000       0.00397800      -0.00100100      -0.00268300
O        4.09987000       1.31435000      33.83884000       0.00404300      -0.00940700       0.00278300
O        4.52871000       3.92918000      27.97203000       0.00483000       0.01116200      -0.00017300
O        3.48433000       1.65633000      22.02254000       0.00039800       0.00412200       0.00147800
O        3.68209000       3.70851000      35.88451000      -0.00189300      -0.00551900       0.00200900
O       -0.10426000       1.51852000      11.37659000       0.00405300      -0.00197500      -0.00490500
O        2.30041000       1.22518000      12.30956000      -0.00397800       0.00100100       0.00268300
O        2.40844000       1.49649000       9.67674000       0.00189300       0.00551900      -0.00200900
O        1.54899000       3.90649000      14.53343000      -0.00772800      -0.00698000      -0.00825600
O        0.67614000       3.88355000      19.95545000       0.00007700      -0.00734300      -0.00414700
O        4.76228000       4.15746000       9.94810000       0.00414900      -0.00610600      -0.00261400
O        4.35485000       3.60470000      12.73953000       0.02258900      -0.01064300      -0.00597900
O        1.99066000       3.89065000      11.72240000      -0.00404300       0.00940700      -0.00278300
O        4.33202000       1.63980000      16.69728000       0.00605900      -0.00592200      -0.00532200
O        4.73037000       1.01393000      14.03989000       0.00683600      -0.00235400      -0.00387500
O        3.92177000       4.23605000      15.47516000       0.00070000      -0.00114900      -0.00687300
O        3.91285000       0.96250000      19.35784000      -0.00037400      -0.00672200       0.00002700
O        1.11407000       3.93415000      17.26116000      -0.00528800       0.00504200      -0.00547600
O        1.56183000       1.27582000      17.58921000      -0.00483000      -0.01116200       0.00017300
O        1.96671000       1.35729000      14.93613000       0.00028400       0.00636800       0.00262400
O        3.48115000       3.56990000      18.18023000      -0.00244000      -0.00189400      -0.00191000
Zr       2.51755000       2.41720000      34.76043000      -0.01128000      -0.00566900       0.01129600
Zr       0.11063000       2.81567000      32.34068000       0.00203800       0.00756300       0.00781600
Zr       4.93032000       4.97501000      34.97151000       0.00823600      -0.00498000       0.00751600
Zr       2.95821000       0.22139000      31.98323000       0.00038800      -0.00670700       0.00281500
Zr       0.83390000       2.38933000      13.22057000      -0.00203800      -0.00756300      -0.00781600
Zr       3.57298000       2.78780000      10.80081000       0.01128000       0.00566900      -0.01129600
Zr       3.13232000       4.98361000      13.57801000      -0.00038800       0.00670700      -0.00281500
Zr       4.71538000       0.22861000      21.23799000       0.00152900      -0.00869400      -0.00396000
Zr       2.24742000       4.98884000      18.97332000       0.00034900      -0.00794800      -0.00386100
Zr       2.68572000       2.83517000      16.28862000       0.00155500      -0.00017000      -0.00060100
Zr       3.40481000       2.36983000      29.27263000      -0.00155500       0.00017000       0.00060100
Zr       0.94429000       2.82254000      26.99454000      -0.00102300      -0.00788800       0.00874900
Zr       0.51571000       4.96346000      29.66963000       0.01270400       0.00850300       0.00066700
Zr       3.84311000       0.21616000      26.58792000      -0.00034900       0.00794800       0.00386100
Zr       0.00024000       2.38246000      18.56671000       0.00102300       0.00788800      -0.00874900
Zr       4.27836000       2.37418000      23.91090000      -0.00189100      -0.00000800       0.00911000
Zr       1.81217000       2.83082000      21.65035000       0.00189100       0.00000800      -0.00911000
Zr       1.37515000       4.97639000      24.32325000      -0.00152900       0.00869400       0.00396000
Zr       0.42882000       0.24154000      15.89162000      -0.01270400      -0.00850300      -0.00066700
Zr       1.16022000       0.22999000      10.58973000      -0.00823600       0.00498000      -0.00751600
