60
Lattice="5.146 0.0 0.0 0.840294 7.390122 0.0 0.0 0.0 38.41044" Properties=species:S:1:pos:R:3:forces:R:3 energy=-566.4434795 stress="6.03552 3.48003 -0.04813 3.48003 11.01364 1.63295 -0.04813 1.63295 9.57626" pbc="T T T"
O        4.21031000       3.62034000      18.54206000      -0.03785800       0.03929500       0.06302300
O        4.63357000       6.15553000      17.33607000       0.00536600      -0.05495800       0.01567600
O        4.81814000       4.78424000      21.07437000      -0.00536600       0.05495800      -0.01567600
O        1.88487000       4.66041000      18.23391000       0.11153500       0.01463100      -0.01684700
O        2.42084000       6.27935000      20.17653000      -0.11153500      -0.01463100       0.01684700
O        1.99545000       0.81669000      18.37903000      -0.08999600      -0.01724500      -0.00820200
O        1.46996000       2.73295000      20.03141000       0.08999600       0.01724500       0.00820200
O        4.39566000       3.58519000      23.62632000       0.01043400       0.01678400      -0.06941900
O        4.21583000       7.27185000      22.24315000      -0.03913300      -0.04564500      -0.02327100
O        3.79786000       2.41771000      21.07488000      -0.04634500      -0.05836900      -0.02537900
O        1.10450000       0.75683000      25.74404000       0.04103600       0.08586400       0.11433000
O        3.98370000       1.08344000      24.70805000       0.06959700       0.11319900       0.00682300
O        1.58269000       2.56059000      23.90911000      -0.20041100       0.02472100       0.01710600
O        2.00375000       4.46524000      22.10448000      -0.11333100       0.08008400      -0.03220000
O        1.45896000       6.39456000      23.73858000       0.02338100       0.03143100       0.00622900
O        3.60899000       0.33328000      27.27921000      -0.05169800       0.04396400      -0.07898400
O        3.40499000       3.59166000      26.01036000       0.01509400      -0.02070900       0.00395600
O        3.74013000       6.11164000      24.84534000      -0.03922600      -0.01108200       0.09116300
O        3.70800000       4.61094000      28.65608000      -0.45583100      -0.16125900      -0.03639600
O        1.00299000       4.61679000      25.61986000      -0.07222200      -0.08185700       0.04503200
O        1.52942000       6.31928000      27.56578000       0.08495300      -0.07228000       0.01997700
O        1.05925000       0.94225000      21.95004000       0.05658300      -0.05504900      -0.08363700
O        5.24140000       7.31943000      19.86838000       0.03785800      -0.03929500      -0.06302300
O        1.14051000       2.52920000      27.64551000      -0.17867900       0.19835400       0.09900000
O        0.06042000      -0.04202000      12.40008000      -0.01509400       0.02070900      -0.00395600
O        3.30272000       6.32298000      12.79058000       0.07222200       0.08185700      -0.04503200
O        2.32490000       1.02045000      10.76493000       0.17867900      -0.19835400      -0.09900000
O        2.36091000       2.79281000      12.66640000      -0.04103600      -0.08586400      -0.11433000
O        2.30196000       6.47452000      16.30596000       0.11333100      -0.08008400       0.03220000
O        5.74371000       6.32883000       9.75436000       0.45583100       0.16125900       0.03639600
O        5.00242000       3.21636000      11.13123000       0.05169800      -0.04396400       0.07898400
O        2.77628000       4.62048000      10.84466000      -0.08495300       0.07228000      -0.01997700
O        5.23588000       3.66791000      16.16730000       0.03913300       0.04564500       0.02327100
O        0.56558000       4.82813000      13.56510000       0.03922600       0.01108200      -0.09116300
O        4.62771000       2.46620000      13.70239000      -0.06959700      -0.11319900      -0.00682300
O        4.81355000       1.13193000      17.33556000       0.04634500       0.05836900       0.02537900
O        1.88272000       0.98906000      14.50133000       0.20041100      -0.02472100      -0.01710600
O        2.40616000       2.60740000      16.46040000      -0.05658300       0.05504900       0.08363700
O        2.84674000       4.54521000      14.67187000      -0.02338100      -0.03143100      -0.00622900
O        5.05604000       7.35458000      14.78412000      -0.01043400      -0.01678400       0.06941900
Zr       5.13448000       2.68721000      25.44063000      -0.10852500      -0.08526800       0.00854600
Zr       1.76083000       0.62673000      27.65947000       0.28162900      -0.14169500      -0.17477700
Zr       2.25379000       4.32381000      27.58846000       0.49334400       0.13005300       0.52556100
Zr       5.47372000       6.68028000      25.75117000       0.06025500      -0.00975000       0.13121400
Zr       1.70458000       2.92291000      10.75097000      -0.28162900       0.14169500       0.17477700
Zr       3.47693000       0.86244000      12.96981000       0.10852500       0.08526800      -0.00854600
Zr       3.97798000       4.25949000      12.65927000      -0.06025500       0.00975000      -0.13121400
Zr       1.24839000       6.71825000      18.27597000      -0.00812800      -0.09715300       0.03502200
Zr       3.06707000       0.56037000      16.39702000      -0.01631600       0.09924200      -0.19856800
Zr       3.46485000       4.57519000      16.72470000       0.02585500       0.01488200      -0.10045500
Zr       0.84086000       6.36457000      21.68574000      -0.02585500      -0.01488200       0.10045500
Zr       2.60061000       4.50347000      24.18176000       0.07969400       0.03677800      -0.09678600
Zr       2.21941000       0.50715000      23.80888000       0.00365000       0.20083700       0.05866800
Zr       0.39835000       2.98927000      22.01343000       0.01631600      -0.09924200       0.19856800
Zr       1.70509000       6.43630000      14.22868000      -0.07969400      -0.03677800       0.09678600
Zr       0.82831000       2.70765000      17.97665000      -0.00858200      -0.01107000       0.00465400
Zr       2.63710000       0.84199000      20.43380000       0.00858200       0.01107000      -0.00465400
Zr       3.05731000       4.22152000      20.13447000       0.00812800       0.09715300      -0.03502200
Zr       1.24600000       3.04250000      14.60156000      -0.00365000      -0.20083700      -0.05866800
Zr       2.05191000       6.61596000      10.82198000      -0.49334400      -0.13005300      -0.52556100
