60
Lattice="5.146 0.0 0.0 0.840294 7.390122 0.0 0.0 0.0 38.41044" Properties=species:S:1:pos:R:3:forces:R:3 energy=-566.70038027 stress="3.06934 3.27722 -0.55683 3.27722 4.86321 0.23456 -0.55683 0.23456 -0.01723" pbc="T T T"
O        4.22915000       3.64498000      18.54556000      -0.04871000      -0.02893100       0.02163200
O        4.64966000       6.14996000      17.31417000      -0.01129700       0.03842400      -0.01427500
O        4.80204000       4.78981000      21.09627000       0.01129700      -0.03842400       0.01427500
O        1.91008000       4.66538000      18.22003000       0.03484600      -0.02017800       0.03295900
O        2.39562000       6.27439000      20.19041000      -0.03484600       0.02017800      -0.03295900
O        1.99310000       0.80548000      18.37646000      -0.06027800      -0.01956600      -0.04095700
O        1.47232000       2.74416000      20.03399000       0.06027800       0.01956600       0.04095700
O        4.35988000       3.61873000      23.66306000       0.09847100      -0.03700600      -0.06790100
O        4.18721000       7.25495000      22.25775000       0.06012700       0.03185800      -0.06734900
O        3.78864000       2.41266000      21.08980000       0.00865100       0.02854300       0.00766700
O        1.13207000       0.82534000      25.77508000      -0.01442600      -0.04857400       0.01099900
O        4.01341000       1.11711000      24.68100000       0.04765100       0.06450200       0.16725700
O        1.55180000       2.59982000      23.93576000      -0.02957300      -0.04026700      -0.00167000
O        1.97361000       4.49808000      22.14526000      -0.02651200      -0.04668500      -0.09477800
O        1.46766000       6.42909000      23.77973000       0.03097200       0.05045300      -0.00899300
O        3.68130000       0.36707000      27.27852000      -0.10364600       0.03522900       0.02907000
O        3.39838000       3.61456000      26.10518000       0.03921600       0.06413400       0.02177800
O        3.74018000       6.14959000      24.90919000       0.03604800       0.09470900       0.04210100
O        3.56865000       4.40720000      28.98134000      -0.01366300      -0.06182500       0.05355600
O        0.96938000       4.63505000      25.66222000       0.03872400      -0.04668300       0.00538000
O        1.64236000       6.33988000      27.58973000       0.01693700       0.02411500       0.06213400
O        1.05428000       0.95693000      21.96108000       0.02585600       0.01725300      -0.04095200
O        5.22256000       7.29478000      19.86488000       0.04871000       0.02893100      -0.02163200
O        1.11686000       2.56330000      27.73133000      -0.08603800      -0.08981300      -0.07561200
O        0.06704000      -0.06491000      12.30526000      -0.03921600      -0.06413400      -0.02177800
O        3.33633000       6.30471000      12.74822000      -0.03872400       0.04668300      -0.00538000
O        2.34855000       0.98634000      10.67911000       0.08603800       0.08981300       0.07561200
O        2.33335000       2.72430000      12.63537000       0.01442600       0.04857400      -0.01099900
O        2.33210000       6.44168000      16.26518000       0.02651200       0.04668500       0.09477800
O        5.88306000       6.53257000       9.42910000       0.01366300       0.06182500      -0.05355600
O        4.93011000       3.18257000      11.13192000       0.10364600      -0.03522900      -0.02907000
O        2.66335000       4.59989000      10.82071000      -0.01693700      -0.02411500      -0.06213400
O        5.26449000       3.68482000      16.15269000      -0.06012700      -0.03185800       0.06734900
O        0.56553000       4.79018000      13.50125000      -0.03604800      -0.09470900      -0.04210100
O        4.59800000       2.43254000      13.72944000      -0.04765100      -0.06450200      -0.16725700
O        4.82278000       1.13699000      17.32064000      -0.00865100      -0.02854300      -0.00766700
O        1.91362000       0.94983000      14.47468000       0.02957300       0.04026700       0.00167000
O        2.41113000       2.59271000      16.44936000      -0.02585600      -0.01725300       0.04095200
O        2.83804000       4.51068000      14.63071000      -0.03097200      -0.05045300       0.00899300
O        5.09183000       7.32104000      14.74739000      -0.09847100       0.03700600       0.06790100
Zr       5.11367000       2.71834000      25.49462000       0.01163600       0.04928300      -0.05069000
Zr       1.82339000       0.67649000      27.65837000       0.06723600       0.04262400       0.01435400
Zr       2.27381000       4.31380000      27.73397000      -0.00343800       0.01432000      -0.08230500
Zr       5.52330000       6.70085000      25.76591000      -0.13929300      -0.05819400      -0.09627200
Zr       1.64202000       2.87315000      10.75207000      -0.06723600      -0.04262400      -0.01435400
Zr       3.49774000       0.83131000      12.91582000      -0.01163600      -0.04928300       0.05069000
Zr       3.92841000       4.23891000      12.64453000       0.13929300       0.05819400       0.09627200
Zr       1.24799000       6.71064000      18.27401000      -0.00244200      -0.00397900      -0.03180100
Zr       3.08367000       0.54786000      16.35538000       0.03102500      -0.03019100      -0.08697200
Zr       3.47489000       4.57031000      16.70293000       0.03150900      -0.05415800      -0.12017900
Zr       0.83082000       6.36946000      21.70751000      -0.03150900       0.05415800       0.12017900
Zr       2.59302000       4.54333000      24.23120000      -0.00457700       0.05026400       0.00566600
Zr       2.23030000       0.56048000      23.82847000       0.04080300      -0.10952700       0.04948800
Zr       0.38174000       3.00179000      22.05506000      -0.03102500       0.03019100       0.08697200
Zr       1.71268000       6.39644000      14.17924000       0.00457700      -0.05026400      -0.00566600
Zr       0.83747000       2.70726000      17.97607000      -0.01596300       0.02322000      -0.06879600
Zr       2.62794000       0.84238000      20.43437000       0.01596300      -0.02322000       0.06879600
Zr       3.05772000       4.22913000      20.13643000       0.00244200       0.00397900       0.03180100
Zr       1.23511000       2.98916000      14.58197000      -0.04080300       0.10952700      -0.04948800
Zr       2.03189000       6.62597000      10.67647000       0.00343800      -0.01432000       0.08230500
