60
Lattice="5.146 0.0 0.0 0.840294 7.390122 0.0 0.0 0.0 38.41044" Properties=species:S:1:pos:R:3:forces:R:3 energy=-566.79953152 stress="1.76813 3.71816 -1.39444 3.71816 1.82897 -3.11423 -1.39444 -3.11423 -5.38956" pbc="T T T"
O        4.22297000       3.61799000      18.54909000       0.00877400       0.02668600      -0.01275000
O        4.65421000       6.13290000      17.28746000      -0.04601400      -0.02835000       0.04017200
O        4.79750000       4.80687000      21.12298000       0.04601400       0.02835000      -0.04017200
O        1.92114000       4.65600000      18.21317000      -0.05841700       0.02132100      -0.01433000
O        2.38456000       6.28377000      20.19727000       0.05841700      -0.02132100       0.01433000
O        1.97887000       0.80112000      18.37305000       0.02005900      -0.01909800       0.00704900
O        1.48654000       2.74853000      20.03739000      -0.02005900       0.01909800      -0.00704900
O        4.39255000       3.65314000      23.69786000      -0.04105000      -0.04130200      -0.05992700
O        4.20836000       7.29855000      22.26845000       0.06827700      -0.00372800       0.02287500
O        3.78517000       2.43217000      21.12100000       0.05724700       0.01301600      -0.00879600
O        1.14916000       0.80594000      25.80840000       0.00579800      -0.01409400       0.00995100
O        4.02144000       1.15876000      24.77495000      -0.04195100      -0.00325000      -0.01515700
O        1.57976000       2.61682000      23.98667000      -0.03910000       0.01991000      -0.00537400
O        1.97334000       4.50500000      22.15936000       0.00168300       0.01925500       0.02161700
O        1.49673000       6.45823000      23.79089000      -0.03312400       0.01967800      -0.02054000
O        3.64330000       0.31478000      27.34218000       0.05590700      -0.00117900      -0.00354600
O        3.45558000       3.69390000      26.17303000       0.00872900       0.02713000      -0.01955100
O        3.77811000       6.18398000      24.89242000       0.01011200      -0.03075200       0.03385800
O        3.41314000       4.19008000      29.16949000      -0.06647200      -0.11302900      -0.06745400
O        1.01148000       4.68499000      25.68439000      -0.00684200       0.04479200      -0.02124000
O        1.67770000       6.36876000      27.68671000      -0.03532600       0.00025100       0.01302000
O        1.06700000       0.98113000      21.98535000       0.00305400       0.01011900      -0.03494300
O        5.22874000       7.32178000      19.86135000      -0.00877400      -0.02668600       0.01275000
O        1.03263000       2.62120000      27.62779000       0.05221100      -0.04621900      -0.02540600
O        0.00983000      -0.14426000      12.23741000      -0.00872900      -0.02713000       0.01955100
O        3.29423000       6.25477000      12.72605000       0.00684200      -0.04479200       0.02124000
O        2.43278000       0.92844000      10.78265000      -0.05221100       0.04621900       0.02540600
O        2.31626000       2.74371000      12.60204000      -0.00579800       0.01409400      -0.00995100
O        2.33237000       6.43477000      16.25108000      -0.00168300      -0.01925500      -0.02161700
O        0.89257000       6.74968000       9.24095000       0.06647200       0.11302900       0.06745400
O        4.96811000       3.23487000      11.06826000      -0.05590700       0.00117900       0.00354600
O        2.62800000       4.57101000      10.72374000       0.03532600      -0.00025100      -0.01302000
O        5.24334000       3.64122000      16.14199000      -0.06827700       0.00372800      -0.02287500
O        0.52760000       4.75579000      13.51802000      -0.01011200       0.03075200      -0.03385800
O        4.58998000       2.39088000      13.63549000       0.04195100       0.00325000       0.01515700
O        4.82624000       1.11747000      17.28944000      -0.05724700      -0.01301600       0.00879600
O        1.88565000       0.93282000      14.42377000       0.03910000      -0.01991000       0.00537400
O        2.39841000       2.56852000      16.42509000      -0.00305400      -0.01011900       0.03494300
O        2.80898000       4.48153000      14.61955000       0.03312400      -0.01967800       0.02054000
O        5.05915000       7.28663000      14.71258000       0.04105000       0.04130200       0.05992700
Zr       5.15826000       2.75479000      25.55526000      -0.03899900      -0.01887200      -0.04283700
Zr       1.80776000       0.71761000      27.70147000      -0.02325000      -0.02764300       0.00243400
Zr       2.27460000       4.32154000      27.78293000      -0.00490600       0.00766200      -0.06768200
Zr       5.52743000       6.72657000      25.79564000      -0.02947000      -0.06295200       0.01165200
Zr       1.65765000       2.83204000      10.70897000       0.02325000       0.02764300      -0.00243400
Zr       3.45316000       0.79485000      12.85519000       0.03899900       0.01887200       0.04283700
Zr       3.92427000       4.21320000      12.61481000       0.02947000       0.06295200      -0.01165200
Zr       1.24437000       6.70482000      18.26594000      -0.03769100       0.04706700       0.01219900
Zr       3.08638000       0.52917000      16.31985000      -0.00406200      -0.04602800       0.03442000
Zr       3.46727000       4.54607000      16.68580000       0.00324500       0.05962700       0.02203400
Zr       0.83844000       6.39369000      21.72464000      -0.00324500      -0.05962700      -0.02203400
Zr       2.61270000       4.56962000      24.24686000       0.03618900       0.04109800       0.01266700
Zr       2.25725000       0.57835000      23.85267000       0.00140300       0.03011800       0.01029600
Zr       0.37903000       3.02048000      22.09059000       0.00406200       0.04602800      -0.03442000
Zr       1.69301000       6.37015000      14.16358000      -0.03618900      -0.04109800      -0.01266700
Zr       0.83787000       2.69090000      17.96863000      -0.02802100      -0.03009900       0.05081800
Zr       2.62754000       0.85875000      20.44181000       0.02802100       0.03009900      -0.05081800
Zr       3.06134000       4.23495000      20.14450000       0.03769100      -0.04706700      -0.01219900
Zr       1.20816000       2.97130000      14.55777000      -0.00140300      -0.03011800      -0.01029600
Zr       2.03111000       6.61823000      10.62751000       0.00490600      -0.00766200       0.06768200
