60
Lattice="5.146 0.0 0.0 0.840294 7.390122 0.0 0.0 0.0 38.41044" Properties=species:S:1:pos:R:3:forces:R:3 energy=-566.82286723 stress="2.52149 3.99106 -1.17021 3.99106 1.90743 -3.58101 -1.17021 -3.58101 -4.49876" pbc="T T T"
O        4.22142000       3.61662000      18.54967000      -0.00118200       0.01050000      -0.04072200
O        4.64593000       6.12564000      17.29297000      -0.01838100       0.00855300       0.02751900
O        4.80578000       4.81413000      21.11747000       0.01838100      -0.00855300      -0.02751900
O        1.91097000       4.65793000      18.21010000      -0.02527900      -0.01956200      -0.00119000
O        2.39474000       6.28184000      20.20035000       0.02527900       0.01956200       0.00119000
O        1.97530000       0.79618000      18.37593000      -0.00343000       0.01443500       0.00485900
O        1.49011000       2.75346000      20.03451000       0.00343000      -0.01443500      -0.00485900
O        4.38758000       3.65279000      23.69339000      -0.00004900      -0.04073500      -0.06359900
O        4.22624000       7.31088000      22.27966000      -0.00134600       0.01451400      -0.04555300
O        3.79318000       2.43782000      21.12073000      -0.00686400      -0.02007700      -0.06290300
O        1.15360000       0.79407000      25.81491000      -0.02326100      -0.01078300      -0.05131300
O        4.01249000       1.16852000      24.79980000      -0.00221000      -0.02019200      -0.03953500
O        1.57640000       2.62328000      23.99708000      -0.00916400      -0.01888700      -0.03305700
O        1.97508000       4.50993000      22.16792000       0.01731300       0.00024800      -0.04492200
O        1.49930000       6.47070000      23.78928000       0.00404000       0.02328600      -0.02519800
O        3.63764000       0.30583000      27.35354000       0.09075500      -0.03622700       0.01273700
O        3.47400000       3.72235000      26.18036000       0.00763800      -0.03587700      -0.06577100
O        3.78262000       6.18662000      24.89733000       0.01366800       0.05361600      -0.03373400
O        3.35821000       4.11241000      29.19104000       0.09195200      -0.13746600       0.12139500
O        1.01967000       4.70182000      25.68479000      -0.02615600      -0.01053600      -0.04500700
O        1.67948000       6.37121000      27.71488000      -0.03298900       0.01904000      -0.00897900
O        1.07589000       0.98976000      21.98138000       0.02730200       0.00590200      -0.02178800
O        5.23028000       7.32315000      19.86077000       0.00118200      -0.01050000       0.04072200
O        1.02430000       2.62823000      27.59539000       0.04436000      -0.06945200       0.00797900
O       -0.00859000      -0.17271000      12.23008000      -0.00763800       0.03587700       0.06577100
O        3.28604000       6.23794000      12.72565000       0.02615600       0.01053600       0.04500700
O        2.44111000       0.92142000      10.81505000      -0.04436000       0.06945200      -0.00797900
O        2.31181000       2.75557000      12.59553000       0.02326100       0.01078300       0.05131300
O        2.33063000       6.42984000      16.24252000      -0.01731300      -0.00024800       0.04492200
O        0.94750000       6.82736000       9.21940000      -0.09195200       0.13746600      -0.12139500
O        4.97377000       3.24382000      11.05690000      -0.09075500       0.03622700      -0.01273700
O        2.62623000       4.56855000      10.69556000       0.03298900      -0.01904000       0.00897900
O        5.22547000       3.62888000      16.13078000       0.00134600      -0.01451400       0.04555300
O        0.52309000       4.75315000      13.51312000      -0.01366800      -0.05361600       0.03373400
O        4.59893000       2.38113000      13.61064000       0.00221000       0.02019200       0.03953500
O        4.81824000       1.11182000      17.28971000       0.00686400       0.02007700       0.06290300
O        1.88901000       0.92637000      14.41336000       0.00916400       0.01888700       0.03305700
O        2.38952000       2.55988000      16.42906000      -0.02730200      -0.00590200       0.02178800
O        2.80640000       4.46907000      14.62116000      -0.00404000      -0.02328600       0.02519800
O        5.06413000       7.28697000      14.71705000       0.00004900       0.04073500       0.06359900
Zr       5.16246000       2.75346000      25.55498000      -0.03982700       0.07704300       0.01234600
Zr       1.80611000       0.71799000      27.70852000      -0.05740600       0.07586200       0.04353000
Zr       2.27295000       4.31879000      27.77945000      -0.14591700      -0.00526600      -0.17357900
Zr       5.52768000       6.72805000      25.80668000      -0.01261600      -0.06995000      -0.00564100
Zr       1.65930000       2.83166000      10.70192000       0.05740600      -0.07586200      -0.04353000
Zr       3.44895000       0.79619000      12.85546000       0.03982700      -0.07704300      -0.01234600
Zr       3.92403000       4.21172000      12.60376000       0.01261600       0.06995000       0.00564100
Zr       1.23646000       6.70742000      18.26947000       0.00557900      -0.04651700      -0.02228100
Zr       3.08293000       0.52033000      16.31793000      -0.01530600      -0.01551300      -0.01111800
Zr       3.45737000       4.54555000      16.68600000       0.02524000      -0.00494200      -0.04406900
Zr       0.84834000       6.39422000      21.72444000      -0.02524000       0.00494200       0.04406900
Zr       2.61953000       4.58398000      24.24986000      -0.01391200       0.00346900       0.06165800
Zr       2.26285000       0.58694000      23.85488000      -0.03611700      -0.02542000       0.01600200
Zr       0.38248000       3.02932000      22.09251000       0.01530600       0.01551300       0.01111800
Zr       1.68617000       6.35579000      14.16059000       0.01391200      -0.00346900      -0.06165800
Zr       0.83556000       2.68589000      17.97136000      -0.04876900       0.00769300      -0.06433500
Zr       2.62985000       0.86375000      20.43908000       0.04876900      -0.00769300       0.06433500
Zr       3.06924000       4.23235000      20.14097000      -0.00557900       0.04651700       0.02228100
Zr       1.20256000       2.96271000      14.55556000       0.03611700       0.02542000      -0.01600200
Zr       2.03276000       6.62098000      10.63100000       0.14591700       0.00526600       0.17357900
