60
Lattice="5.146 0.0 0.0 0.840294 7.390122 0.0 0.0 0.0 38.41044" Properties=species:S:1:pos:R:3:forces:R:3 energy=-566.8463105 stress="3.06427 3.8785 -1.49923 3.8785 2.60735 -3.7312 -1.49923 -3.7312 -4.73739" pbc="T T T"
O        4.21595000       3.62295000      18.53936000      -0.02273600      -0.00281600       0.05142800
O        4.63451000       6.12403000      17.30223000       0.03733200       0.01424600       0.02112700
O        4.81720000       4.81574000      21.10821000      -0.03733200      -0.01424600      -0.02112700
O        1.89998000       4.65563000      18.20649000       0.02327600       0.00738600       0.03599100
O        2.40572000       6.28414000      20.20395000      -0.02327600      -0.00738600      -0.03599100
O        1.97231000       0.79469000      18.37793000      -0.00975800      -0.01195200      -0.00444500
O        1.49310000       2.75496000      20.03251000       0.00975800       0.01195200       0.00444500
O        4.37817000       3.64440000      23.67972000       0.03308200      -0.00413900      -0.02733300
O        4.23433000       7.32107000      22.28029000      -0.02649400       0.00715100       0.00250700
O        3.80378000       2.44091000      21.10523000       0.00994700       0.01684100      -0.03355100
O        1.15051000       0.78551000      25.81461000       0.00521800       0.01742600      -0.03484400
O        4.00846000       1.16973000      24.80340000      -0.01145600      -0.01471000      -0.00871000
O        1.57184000       2.62593000      23.99634000       0.00027100      -0.00266700      -0.03425400
O        1.98281000       4.51351000      22.16717000      -0.00379500      -0.01889100      -0.04202300
O        1.50127000       6.47864000      23.78626000      -0.00603800      -0.02853700      -0.01573000
O        3.64178000       0.29449000      27.36742000      -0.02159800      -0.02240600      -0.03806100
O        3.47530000       3.73342000      26.16930000      -0.04276700       0.00027500      -0.00664900
O        3.78599000       6.19476000      24.89002000      -0.02695300      -0.04081500      -0.03722700
O        3.32322000       4.02735000      29.19422000      -0.01408900      -0.07501100      -0.05206800
O        1.01630000       4.70424000      25.67655000      -0.02263200       0.00596700       0.00355900
O        1.67401000       6.37446000      27.72668000       0.05543000      -0.05320000      -0.01165700
O        1.08693000       0.99559000      21.97823000      -0.01419900      -0.01427100      -0.00617000
O        5.23576000       7.31682000      19.87108000       0.02273600       0.00281600      -0.05142800
O        1.02914000       2.62149000      27.57847000      -0.06135700       0.07812900      -0.02407700
O       -0.00989000      -0.18377000      12.24114000       0.04276700      -0.00027500       0.00664900
O        3.28941000       6.23553000      12.73389000       0.02263200      -0.00596700      -0.00355900
O        2.43627000       0.92815000      10.83197000       0.06135700      -0.07812900       0.02407700
O        2.31490000       2.76414000      12.59583000      -0.00521800      -0.01742600       0.03484400
O        2.32290000       6.42625000      16.24327000       0.00379500       0.01889100       0.04202300
O        0.98249000       6.91242000       9.21622000       0.01408900       0.07501100       0.05206800
O        4.96963000       3.25516000      11.04302000       0.02159800       0.02240600       0.03806100
O        2.63170000       4.56531000      10.68377000      -0.05543000       0.05320000       0.01165700
O        5.21738000       3.61869000      16.13015000       0.02649400      -0.00715100      -0.00250700
O        0.51971000       4.74501000      13.52042000       0.02695300       0.04081500       0.03722700
O        4.60295000       2.37992000      13.60704000       0.01145600       0.01471000       0.00871000
O        4.80763000       1.10873000      17.30521000      -0.00994700      -0.01684100       0.03355100
O        1.89357000       0.92372000      14.41410000      -0.00027100       0.00266700       0.03425400
O        2.37848000       2.55406000      16.43221000       0.01419900       0.01427100       0.00617000
O        2.80444000       4.46113000      14.62419000       0.00603800       0.02853700       0.01573000
O        5.07354000       7.29536000      14.73072000      -0.03308200       0.00413900       0.02733300
Zr       5.15477000       2.75493000      25.54200000       0.04328000      -0.03843000       0.01703400
Zr       1.80704000       0.72129000      27.71226000      -0.02090000      -0.03796000      -0.00757500
Zr       2.26321000       4.31318000      27.77006000       0.01050300      -0.05096500       0.02693900
Zr       5.52377000       6.72637000      25.81140000       0.03556000       0.04498400       0.01158000
Zr       1.65837000       2.82835000      10.69819000       0.02090000       0.03796000       0.00757500
Zr       3.45665000       0.79472000      12.86844000      -0.04328000       0.03843000      -0.01703400
Zr       3.92793000       4.21339000      12.59905000      -0.03556000      -0.04498400      -0.01158000
Zr       1.23685000       6.70107000      18.27264000      -0.00903900       0.00655200       0.00421400
Zr       3.07481000       0.51653000      16.32811000      -0.00097900      -0.00293300      -0.03359600
Zr       3.45656000       4.54278000      16.68573000      -0.03180500       0.00393300      -0.01975300
Zr       0.84915000       6.39699000      21.72471000       0.03180500      -0.00393300       0.01975300
Zr       2.62282000       4.59054000      24.25049000      -0.03474200      -0.00486000      -0.01727700
Zr       2.25660000       0.59080000      23.85372000       0.01135700      -0.00716200       0.02352000
Zr       0.39060000       3.03312000      22.08233000       0.00097900       0.00293300       0.03359600
Zr       1.68289000       6.34923000      14.15995000       0.03474200       0.00486000       0.01727700
Zr       0.82509000       2.68237000      17.96728000       0.03587300       0.01336200       0.03268600
Zr       2.64032000       0.86728000      20.44316000      -0.03587300      -0.01336200      -0.03268600
Zr       3.06885000       4.23869000      20.13780000       0.00903900      -0.00655200      -0.00421400
Zr       1.20881000       2.95885000      14.55672000      -0.01135700       0.00716200      -0.02352000
Zr       2.04250000       6.62659000      10.64038000      -0.01050300       0.05096500      -0.02693900
