60
Lattice="5.146 0.0 0.0 0.840294 7.390122 0.0 0.0 0.0 38.41044" Properties=species:S:1:pos:R:3:forces:R:3 energy=-566.91664103 stress="4.75332 4.56908 -1.22638 4.56908 1.80298 -3.48642 -1.22638 -3.48642 -0.25312" pbc="T T T"
O        4.21953000       3.62347000      18.54217000      -0.04349800       0.04371700      -0.00726100
O        4.63758000       6.12034000      17.31823000      -0.07947500      -0.08344600      -0.04821900
O        4.81413000       4.81942000      21.09221000       0.07947500       0.08344600       0.04821900
O        1.89803000       4.65145000      18.21928000       0.03153600      -0.01788600      -0.03973400
O        2.40767000       6.28832000      20.19117000      -0.03153600       0.01788600       0.03973400
O        1.96997000       0.79645000      18.37651000      -0.02579300      -0.00687300       0.01251300
O        1.49544000       2.75319000      20.03393000       0.02579300       0.00687300      -0.01251300
O        4.36327000       3.63770000      23.64287000       0.07954600      -0.03341300       0.02522600
O        4.24308000       7.33689000      22.26971000      -0.02439500      -0.02035300      -0.01380900
O        3.83158000       2.43944000      21.06085000      -0.16983500      -0.06116500       0.01340300
O        1.15034000       0.76334000      25.79766000      -0.02713200       0.00648500       0.04005700
O        3.99106000       1.16252000      24.80616000       0.05720700      -0.01892800      -0.00496500
O        1.56615000       2.62038000      23.97573000      -0.05291500      -0.00720000       0.00454500
O        1.98790000       4.50626000      22.14543000      -0.04436600       0.03639700      -0.05279000
O        1.49984000       6.47242000      23.76742000      -0.02971800      -0.01196900      -0.03886600
O        3.61922000       0.23358000      27.35500000      -0.00933900       0.00727200       0.00613200
O        3.44458000       3.72443000      26.13206000       0.10303900      -0.03226100      -0.05110900
O        3.79342000       6.18091000      24.84527000       0.00048100      -0.01684700       0.00610500
O        3.22478000       3.67301000      29.14326000      -0.10889800      -0.05728600      -0.11493700
O        1.00171000       4.70475000      25.65903000      -0.02208800       0.03608900       0.01350100
O        1.72798000       6.34940000      27.74915000      -0.02675500       0.07279800       0.04561700
O        1.08791000       0.99283000      21.96403000      -0.00768700      -0.05857900       0.00991400
O        5.23218000       7.31629000      19.86827000       0.04349800      -0.04371700       0.00726100
O        0.94607000       2.63157000      27.50272000       0.06091600      -0.07011700      -0.02280800
O        0.02083000      -0.17478000      12.27838000      -0.10303900       0.03226100       0.05110900
O        3.30400000       6.23502000      12.75141000       0.02208800      -0.03608900      -0.01350100
O        2.51935000       0.91808000      10.90772000      -0.06091600       0.07011700       0.02280800
O        2.31508000       2.78631000      12.61279000       0.02713200      -0.00648500      -0.04005700
O        2.31780000       6.43351000      16.26502000       0.04436600      -0.03639700       0.05279000
O        1.08093000       7.26675000       9.26718000       0.10889800       0.05728600       0.11493700
O        4.99220000       3.31607000      11.05544000       0.00933900      -0.00727200      -0.00613200
O        2.57773000       4.59036000      10.66129000       0.02675500      -0.07279800      -0.04561700
O        5.20863000       3.60288000      16.14073000       0.02439500       0.02035300       0.01380900
O        0.51229000       4.75886000      13.56517000      -0.00048100       0.01684700      -0.00610500
O        4.62036000       2.38712000      13.60428000      -0.05720700       0.01892800       0.00496500
O        4.77983000       1.11021000      17.34959000       0.16983500       0.06116500      -0.01340300
O        1.89926000       0.92926000      14.43471000       0.05291500       0.00720000      -0.00454500
O        2.37750000       2.55682000      16.44641000       0.00768700       0.05857900      -0.00991400
O        2.80586000       4.46735000      14.64302000       0.02971800       0.01196900       0.03886600
O        5.08843000       7.30206000      14.76757000      -0.07954600       0.03341300      -0.02522600
Zr       5.14881000       2.74536000      25.51286000      -0.07130200       0.00738600       0.01304700
Zr       1.79604000       0.72480000      27.70298000       0.08106800       0.03530100       0.00008600
Zr       2.24845000       4.25572000      27.73754000      -0.02445400      -0.09786400       0.08842700
Zr       5.51492000       6.71776000      25.79493000      -0.00716100      -0.04050100      -0.01953300
Zr       1.66937000       2.82485000      10.70746000      -0.08106800      -0.03530100      -0.00008600
Zr       3.46261000       0.80428000      12.89758000       0.07130200      -0.00738600      -0.01304700
Zr       3.93679000       4.22201000      12.61551000       0.00716100       0.04050100       0.01953300
Zr       1.23399000       6.69808000      18.27957000      -0.00088600       0.04529100      -0.00296500
Zr       3.07374000       0.51771000      16.35305000       0.01698800      -0.00830300      -0.08830100
Zr       3.45239000       4.54051000      16.70008000       0.08684200       0.03803800      -0.00522600
Zr       0.85332000       6.39926000      21.71036000      -0.08684200      -0.03803800       0.00522600
Zr       2.61318000       4.58385000      24.22294000       0.03038800       0.01510400       0.07330700
Zr       2.25283000       0.58128000      23.83768000      -0.00455700      -0.00500000       0.01992200
Zr       0.39168000       3.03193000      22.05739000      -0.01698800       0.00830300       0.08830100
Zr       1.69253000       6.35592000      14.18750000      -0.03038800      -0.01510400      -0.07330700
Zr       0.82770000       2.68063000      17.97637000      -0.08367500      -0.02337000      -0.00003600
Zr       2.63771000       0.86901000      20.43407000       0.08367500       0.02337000       0.00003600
Zr       3.07172000       4.24169000      20.13087000       0.00088600      -0.04529100       0.00296500
Zr       1.21258000       2.96837000      14.57276000       0.00455700       0.00500000      -0.01992200
Zr       2.05725000       6.68405000      10.67290000       0.02445400       0.09786400      -0.08842700
