60
Lattice="5.146 0.0 0.0 0.840294 7.390122 0.0 0.0 0.0 38.41044" Properties=species:S:1:pos:R:3:forces:R:3 energy=-567.11392092 stress="14.32334 2.11002 -0.30926 2.11002 -5.80418 -0.62569 -0.30926 -0.62569 8.81688" pbc="T T T"
O        4.24575000       3.64853000      18.57056000      -0.01826100      -0.07639700      -0.04704600
O        4.68194000       6.12773000      17.30935000      -0.22024900      -0.02614300      -0.06932200
O        4.76977000       4.81204000      21.10109000       0.22024900       0.02614300       0.06932200
O        1.91166000       4.65696000      18.23032000       0.07163100      -0.02367500      -0.12039300
O        2.39404000       6.28281000      20.18012000      -0.07163100       0.02367500       0.12039300
O        1.98538000       0.81572000      18.38018000       0.00392300      -0.18343900      -0.08289300
O        1.48003000       2.73392000      20.03026000      -0.00392300       0.18343900       0.08289300
O        4.35045000       3.63790000      23.59015000      -0.09828900       0.07885500       0.21175900
O        4.23618000       7.34856000      22.24706000       0.07770000      -0.16657800      -0.19987100
O        3.79973000       2.41937000      21.07494000       0.06553600       0.18065200      -0.05180000
O        1.13696000       0.66930000      25.77752000      -0.10177900       0.16843100      -0.37108000
O        3.95247000       1.13093000      24.77508000       0.10471800      -0.00667100      -0.06810100
O        1.53403000       2.57711000      23.93945000       0.02876500       0.36792300       0.00163100
O        1.96059000       4.49162000      22.12080000      -0.00082200      -0.05317300      -0.05690100
O        1.49057000       6.45875000      23.69663000      -0.01591300      -0.39995700       0.28049600
O        3.59629000       0.07405000      27.28207000       0.16551300      -0.07825700      -0.11591100
O        3.40451000       3.64471000      26.08067000      -0.46178000       0.61123500       0.29648200
O        3.82734000       6.13735000      24.75144000      -0.61457300      -0.44600200      -0.28310500
O        2.89660000       2.75250000      28.88937000      -1.11949400       0.63959800      -1.56086500
O        1.02636000       4.70268000      25.64329000       0.21687900      -0.57296300       0.32075100
O        1.84556000       6.31643000      27.85286000       0.03026500      -0.80325100       0.11790400
O        1.07049000       0.96845000      21.95444000      -0.10075300       0.15704500      -0.28137100
O        5.20596000       7.29124000      19.83988000       0.01826100       0.07639700       0.04704600
O        0.76094000       2.63838000      27.32640000       0.31207100       0.41914100       0.37759300
O        0.06091000      -0.09506000      12.32977000       0.46178000      -0.61123500      -0.29648200
O        3.27935000       6.23708000      12.76715000      -0.21687900       0.57296300      -0.32075100
O        2.70447000       0.91126000      11.08404000      -0.31207100      -0.41914100      -0.37759300
O        2.32845000       2.88034000      12.63292000       0.10177900      -0.16843100       0.37108000
O        2.34511000       6.44815000      16.28965000       0.00082200       0.05317300       0.05690100
O        0.56881000       0.79715000       9.52107000       1.11949400      -0.63959800       1.56086500
O        5.01512000       3.47559000      11.12837000      -0.16551300       0.07825700       0.11591100
O        2.46015000       4.62334000      10.55758000      -0.03026500       0.80325100      -0.11790400
O        5.21553000       3.59121000      16.16338000      -0.07770000       0.16657800       0.19987100
O        0.47836000       4.80242000      13.65900000       0.61457300       0.44600200       0.28310500
O        4.65894000       2.41872000      13.63536000      -0.10471800       0.00667100       0.06810100
O        4.81168000       1.13027000      17.33550000      -0.06553600      -0.18065200       0.05180000
O        1.93138000       0.97253000      14.47100000      -0.02876500      -0.36792300      -0.00163100
O        2.39493000       2.58120000      16.45600000       0.10075300      -0.15704500       0.28137100
O        2.81514000       4.48101000      14.71381000       0.01591300       0.39995700      -0.28049600
O        5.10126000       7.30187000      14.82029000       0.09828900      -0.07885500      -0.21175900
Zr       5.09241000       2.69434000      25.44573000       0.29063000      -0.83759300      -0.55686300
Zr       1.82655000       0.75181000      27.66793000       0.62046900       0.08309100       0.96837800
Zr       2.19239000       4.09399000      27.66915000       0.32586000      -0.91326800       0.63474500
Zr       5.48906000       6.62531000      25.74271000       0.42318400       1.53311000       0.59628200
Zr       1.63886000       2.79783000      10.74252000      -0.62046900      -0.08309100      -0.96837800
Zr       3.51901000       0.85531000      12.96471000      -0.29063000       0.83759300       0.55686300
Zr       3.96265000       4.31446000      12.66773000      -0.42318400      -1.53311000      -0.59628200
Zr       1.23226000       6.71316000      18.26202000       0.75542100      -0.26911000       0.55392200
Zr       3.09933000       0.51779000      16.38115000      -0.56123400       0.69164600      -0.26174900
Zr       3.50530000       4.56273000      16.73480000      -0.65912900      -0.35797800       0.04696000
Zr       0.80040000       6.37704000      21.67564000       0.65912900       0.35797800      -0.04696000
Zr       2.61361000       4.56949000      24.17288000      -0.32162100      -0.06600900      -0.05716400
Zr       2.22496000       0.54186000      23.78982000      -0.27691000       0.41095400       0.56510600
Zr       0.36608000       3.03186000      22.02929000       0.56123400      -0.69164600       0.26174900
Zr       1.69210000       6.37028000      14.23756000       0.32162100       0.06600900       0.05716400
Zr       0.83385000       2.67076000      17.97509000       0.39714200       0.43591000       0.09893100
Zr       2.63156000       0.87888000      20.43535000      -0.39714200      -0.43591000      -0.09893100
Zr       3.07344000       4.22661000      20.14842000      -0.75542100       0.26911000      -0.55392200
Zr       1.24045000       3.00779000      14.62062000       0.27691000      -0.41095400      -0.56510600
Zr       2.11331000       6.84577000      10.74129000      -0.32586000       0.91326800      -0.63474500
