60
Lattice="5.146 0.0 0.0 0.840294 7.390122 0.0 0.0 0.0 38.41044" Properties=species:S:1:pos:R:3:forces:R:3 energy=-567.23004152 stress="15.22145 1.82356 0.01317 1.82356 -6.83975 -0.31406 0.01317 -0.31406 10.00766" pbc="T T T"
O        4.24874000       3.65129000      18.57374000      -0.02078100      -0.09030500      -0.04522900
O        4.68611000       6.12828000      17.30788000      -0.21627000      -0.00554800      -0.05849500
O        4.76560000       4.81149000      21.10256000       0.21627000       0.00554800       0.05849500
O        1.91369000       4.65747000      18.23102000       0.06389400      -0.02970700      -0.11183200
O        2.39202000       6.28230000      20.17942000      -0.06389400       0.02970700       0.11183200
O        1.98719000       0.81721000      18.38028000       0.01046500      -0.19245900      -0.08525900
O        1.47823000       2.73244000      20.03017000      -0.01046500       0.19245900       0.08525900
O        4.34863000       3.63824000      23.58473000      -0.09492100       0.04605200       0.24786900
O        4.23571000       7.34915000      22.24334000       0.04879600      -0.15155900      -0.17052200
O        3.79583000       2.41760000      21.07638000       0.08289000       0.19622600      -0.06239900
O        1.13485000       0.65870000      25.77352000      -0.09709100       0.22979700      -0.37290800
O        3.94843000       1.12708000      24.77103000       0.08673600      -0.02325800      -0.06991300
O        1.53020000       2.57354000      23.93506000       0.03450000       0.36501700       0.01115300
O        1.95720000       4.48972000      22.11742000       0.00991800      -0.06938300      -0.05501700
O        1.48932000       6.45530000      23.68924000      -0.01402700      -0.39999500       0.30573100
O        3.59419000       0.05453000      27.27281000       0.19756700      -0.08151300      -0.11512000
O        3.39795000       3.63775000      26.07546000      -0.50133100       0.61882300       0.41448400
O        3.82864000       6.13003000      24.73886000      -0.59038500      -0.41428400      -0.26373000
O        2.85202000       2.64410000      28.85190000      -1.12159200       0.73670700      -1.59676400
O        1.03017000       4.70001000      25.64271000       0.23144600      -0.58800800       0.39148900
O        1.85985000       6.30927000      27.86597000       0.02500100      -0.94563200       0.12278300
O        1.06792000       0.96608000      21.95200000      -0.10124400       0.16710300      -0.28010400
O        5.20296000       7.28848000      19.83670000       0.02078100       0.09030500       0.04522900
O        0.74001000       2.64081000      27.30655000       0.37098600       0.45668200       0.53285700
O        0.06746000      -0.08810000      12.33498000       0.50133100      -0.61882300      -0.41448400
O        3.27553000       6.23976000      12.76773000      -0.23144600       0.58800800      -0.39148900
O        2.72540000       0.90883000      11.10389000      -0.37098600      -0.45668200      -0.53285700
O        2.33056000       2.89095000      12.63692000       0.09709100      -0.22979700       0.37290800
O        2.34850000       6.45005000      16.29302000      -0.00991800       0.06938300       0.05501700
O        0.61339000       0.90555000       9.55854000       1.12159200      -0.73670700       1.59676400
O        5.01722000       3.49512000      11.13763000      -0.19756700       0.08151300       0.11512000
O        2.44585000       4.63050000      10.54447000      -0.02500100       0.94563200      -0.12278300
O        5.21599000       3.59062000      16.16711000      -0.04879600       0.15155900       0.17052200
O        0.47707000       4.80973000      13.67158000       0.59038500       0.41428400       0.26373000
O        4.66299000       2.42257000      13.63942000      -0.08673600       0.02325800       0.06991300
O        4.81559000       1.13204000      17.33406000      -0.08289000      -0.19622600       0.06239900
O        1.93521000       0.97610000      14.47538000      -0.03450000      -0.36501700      -0.01115300
O        2.39749000       2.58356000      16.45844000       0.10124400      -0.16710300       0.28010400
O        2.81639000       4.48447000      14.72120000       0.01402700       0.39999500      -0.30573100
O        5.10308000       7.30153000      14.82571000       0.09492100      -0.04605200      -0.24786900
Zr       5.08678000       2.68443000      25.43545000       0.29579900      -0.78603500      -0.68556100
Zr       1.83297000       0.75540000      27.66784000       0.66447100       0.05469200       1.05816700
Zr       2.18708000       4.07056000      27.66408000       0.25503000      -0.90752900       0.43608800
Zr       5.48789000       6.62096000      25.73909000       0.40981800       1.49707300       0.57213800
Zr       1.63245000       2.79424000      10.74260000      -0.66447100      -0.05469200      -1.05816700
Zr       3.52463000       0.86521000      12.97500000      -0.29579900       0.78603500       0.68556100
Zr       3.96382000       4.31880000      12.67135000      -0.40981800      -1.49707300      -0.57213800
Zr       1.23547000       6.71386000      18.26239000       0.71600200      -0.26569100       0.53553800
Zr       3.09990000       0.52092000      16.38309000      -0.53306200       0.66779100      -0.21297300
Zr       3.50888000       4.56385000      16.73916000      -0.65318200      -0.34172600       0.03277000
Zr       0.79683000       6.37592000      21.67128000       0.65318200       0.34172600      -0.03277000
Zr       2.61229000       4.56743000      24.16684000      -0.34977900      -0.02198200      -0.06838000
Zr       2.22036000       0.53903000      23.78671000      -0.27507300       0.34367400       0.54077100
Zr       0.36551000       3.02873000      22.02735000       0.53306200      -0.66779100       0.21297300
Zr       1.69342000       6.37234000      14.24360000       0.34977900       0.02198200       0.06838000
Zr       0.83623000       2.67146000      17.97536000       0.36274700       0.44085400       0.09801800
Zr       2.62918000       0.87818000      20.43508000      -0.36274700      -0.44085400      -0.09801800
Zr       3.07023000       4.22590000      20.14805000      -0.71600200       0.26569100      -0.53553800
Zr       1.24505000       3.01062000      14.62373000       0.27507300      -0.34367400      -0.54077100
Zr       2.11862000       6.86921000      10.74636000      -0.25503000       0.90752900      -0.43608800
