60
Lattice="5.146 0.0 0.0 0.840294 7.390122 0.0 0.0 0.0 38.41044" Properties=species:S:1:pos:R:3:forces:R:3 energy=-567.6307699 stress="16.63397 1.85471 0.58836 1.85471 -7.13145 0.38088 0.58836 0.38088 12.31223" pbc="T T T"
O        4.25384000       3.65517000      18.57902000      -0.04818600      -0.10628800      -0.03858700
O        4.69158000       6.12951000      17.30485000      -0.18379600       0.02051300      -0.01217300
O        4.76013000       4.81026000      21.10559000       0.18379600      -0.02051300       0.01217300
O        1.91780000       4.65803000      18.23135000       0.02726000      -0.05229700      -0.06562900
O        2.38790000       6.28174000      20.17909000      -0.02726000       0.05229700       0.06562900
O        1.99060000       0.81793000      18.37960000       0.01739800      -0.17907700      -0.06864300
O        1.47481000       2.73172000      20.03084000      -0.01739800       0.17907700       0.06864300
O        4.34453000       3.63876000      23.57793000      -0.02701400      -0.10689500       0.29375100
O        4.23494000       7.34899000      22.23543000      -0.05361000      -0.08199600      -0.05963500
O        3.78987000       2.41651000      21.07824000       0.05597900       0.16375600      -0.10464600
O        1.13006000       0.64284000      25.76231000      -0.03579200       0.39731600      -0.24125200
O        3.94172000       1.11979000      24.76305000       0.01343800      -0.09475100      -0.07668500
O        1.52372000       2.57063000      23.92746000       0.04119900       0.26478300       0.01320500
O        1.95140000       4.48541000      22.11090000       0.03326100      -0.09232200      -0.07926300
O        1.48699000       6.44533000      23.67919000      -0.02291900      -0.29612900       0.29063400
O        3.59310000       0.01852000      27.25498000       0.22731100      -0.02966400      -0.02560600
O        3.38068000       3.63116000      26.07220000      -0.32686600       0.43772400       0.51115700
O        3.82567000       6.11343000      24.71408000      -0.36319000      -0.19643300      -0.12574500
O        2.76290000       2.46020000      28.77094000      -0.72253000       0.82491000      -1.08610700
O        1.03947000       4.68931000      25.64641000       0.14368400      -0.39229300       0.45389600
O        1.88531000       6.28445000      27.89071000       0.03708600      -1.04292900       0.12618400
O        1.06235000       0.96357000      21.94501000      -0.08586400       0.12906200      -0.21021600
O        5.19786000       7.28459000      19.83142000       0.04818600       0.10628800       0.03858700
O        0.70724000       2.65039000      27.27894000       0.30814200       0.32577800       0.65777700
O        0.08473000      -0.08151000      12.33824000       0.32686600      -0.43772400      -0.51115700
O        3.26624000       6.25045000      12.76403000      -0.14368400       0.39229300      -0.45389600
O        2.75817000       0.89926000      11.13150000      -0.30814200      -0.32577800      -0.65777700
O        2.33535000       2.90681000      12.64813000       0.03579200      -0.39731600       0.24125200
O        2.35431000       6.45435000      16.29954000      -0.03326100       0.09232200       0.07926300
O        0.70252000       1.08944000       9.63950000       0.72253000      -0.82491000       1.08610700
O        5.01831000       3.53113000      11.15546000      -0.22731100       0.02966400       0.02560600
O        2.42039000       4.65531000      10.51973000      -0.03708600       1.04292900      -0.12618400
O        5.21677000       3.59078000      16.17501000       0.05361000       0.08199600       0.05963500
O        0.48004000       4.82633000      13.69636000       0.36319000       0.19643300       0.12574500
O        4.66970000       2.42986000      13.64739000      -0.01343800       0.09475100       0.07668500
O        4.82155000       1.13314000      17.33220000      -0.05597900      -0.16375600       0.10464600
O        1.94170000       0.97901000      14.48299000      -0.04119900      -0.26478300      -0.01320500
O        2.40306000       2.58608000      16.46543000       0.08586400      -0.12906200       0.21021600
O        2.81872000       4.49444000      14.73125000       0.02291900       0.29612900      -0.29063400
O        5.10718000       7.30101000      14.83251000       0.02701400       0.10689500      -0.29375100
Zr       5.07965000       2.65985000      25.40824000       0.26131800      -0.35018600      -0.62896300
Zr       1.85039000       0.76012000      27.67793000       0.41327600      -0.29251700       0.86727200
Zr       2.17857000       4.02107000      27.65540000      -0.01562600      -0.37673100      -0.20188400
Zr       5.48945000       6.62702000      25.73783000       0.33906300       0.88435100       0.33990800
Zr       1.61502000       2.78953000      10.73251000      -0.41327600       0.29251700      -0.86727200
Zr       3.53177000       0.88980000      13.00220000      -0.26131800       0.35018600       0.62896300
Zr       3.96225000       4.31275000      12.67261000      -0.33906300      -0.88435100      -0.33990800
Zr       1.24739000       6.71267000      18.26785000       0.39459100      -0.17145700       0.32239900
Zr       3.09628000       0.53248000      16.38526000      -0.29805700       0.41224800      -0.04288800
Zr       3.50923000       4.56286000      16.74707000      -0.43246800      -0.18445800      -0.04123000
Zr       0.79648000       6.37691000      21.66337000       0.43246800       0.18445800       0.04123000
Zr       2.60621000       4.56428000      24.15507000      -0.36359200       0.11164300       0.02303000
Zr       2.20950000       0.53623000      23.78603000      -0.19963400       0.04012800       0.35065200
Zr       0.36913000       3.01717000      22.02518000       0.29805700      -0.41224800       0.04288800
Zr       1.69950000       6.37549000      14.25537000       0.36359200      -0.11164300      -0.02303000
Zr       0.84341000       2.67694000      17.97672000       0.11898800       0.32123100       0.05491300
Zr       2.62200000       0.87270000      20.43372000      -0.11898800      -0.32123100      -0.05491300
Zr       3.05831000       4.22709000      20.14259000      -0.39459100       0.17145700      -0.32239900
Zr       1.25591000       3.01341000      14.62441000       0.19963400      -0.04012800      -0.35065200
Zr       2.12714000       6.91870000      10.75504000       0.01562600       0.37673100       0.20188400
