60
Lattice="5.146 0.0 0.0 0.840294 7.390122 0.0 0.0 0.0 38.41044" Properties=species:S:1:pos:R:3:forces:R:3 energy=-568.19947862 stress="14.78837 2.35371 0.07506 2.35371 -7.67668 0.20378 0.07506 0.20378 11.64662" pbc="T T T"
O        4.24404000       3.64658000      18.57317000      -0.04444300      -0.02525400      -0.05464400
O        4.67553000       6.12852000      17.30824000       0.01963200       0.05785500       0.06648500
O        4.77618000       4.81125000      21.10220000      -0.01963200      -0.05785500      -0.06648500
O        1.91880000       4.65211000      18.22774000      -0.02546700       0.04695500       0.01254400
O        2.38690000       6.28766000      20.18270000       0.02546700      -0.04695500      -0.01254400
O        1.99398000       0.80228000      18.37751000       0.01808800       0.02747600       0.02286500
O        1.47144000       2.74737000      20.03293000      -0.01808800      -0.02747600      -0.02286500
O        4.34093000       3.61598000      23.60627000      -0.02002900      -0.01735200      -0.09139400
O        4.22319000       7.33993000      22.23252000      -0.04802100      -0.04946000       0.03634300
O        3.78722000       2.42745000      21.06068000       0.07141100       0.02496200      -0.02405700
O        1.13461000       0.68766000      25.76507000       0.11220300      -0.06810400       0.38813500
O        3.93879000       1.09654000      24.75197000       0.19564300       0.03810000       0.11375100
O        1.53190000       2.58470000      23.91916000       0.03271700      -0.01182300       0.05594800
O        1.95647000       4.47817000      22.09934000       0.04765200       0.03212500       0.08858300
O        1.47346000       6.41700000      23.70547000      -0.03829100      -0.00633700       0.14341600
O        3.61924000       0.00557000      27.26018000      -0.23023100       0.17064600       0.36036200
O        3.38948000       3.65513000      26.08671000      -0.05957700       0.18202800       0.03165800
O        3.81268000       6.10661000      24.71012000       0.04355800       0.02326300       0.19164700
O        2.69018000       2.43362000      28.67913000       0.01382400      -0.09428000       0.05378000
O        1.04180000       4.67358000      25.69151000      -0.01862100      -0.02579000       0.14757200
O        1.90887000       6.17376000      27.91470000       0.14150500      -0.01489600       0.07706900
O        1.05036000       0.96266000      21.93050000      -0.00134500      -0.03180100       0.08390000
O        5.20766000       7.29319000      19.83727000       0.04444300       0.02525400       0.05464400
O        0.67712000       2.65033000      27.29956000      -0.17127100      -0.11971400       0.21004900
O        0.07593000      -0.10548000      12.32373000       0.05957700      -0.18202800      -0.03165800
O        3.26391000       6.26619000      12.71893000       0.01862100       0.02579000      -0.14757200
O        2.78829000       0.89932000      11.11088000       0.17127100       0.11971400      -0.21004900
O        2.33080000       2.86198000      12.64537000      -0.11220300       0.06810400      -0.38813500
O        2.34923000       6.46160000      16.31110000      -0.04765200      -0.03212500      -0.08858300
O        0.77523000       1.11603000       9.73131000      -0.01382400       0.09428000      -0.05378000
O        4.99217000       3.54407000      11.15026000       0.23023100      -0.17064600      -0.36036200
O        2.39683000       4.76600000      10.49574000      -0.14150500       0.01489600      -0.07706900
O        5.22852000       3.59984000      16.17792000       0.04802100       0.04946000      -0.03634300
O        0.49302000       4.83315000      13.70032000      -0.04355800      -0.02326300      -0.19164700
O        4.67262000       2.45310000      13.65847000      -0.19564300      -0.03810000      -0.11375100
O        4.82419000       1.12219000      17.34976000      -0.07141100      -0.02496200       0.02405700
O        1.93352000       0.96495000      14.49128000      -0.03271700       0.01182300      -0.05594800
O        2.41506000       2.58699000      16.47994000       0.00134500       0.03180100      -0.08390000
O        2.83225000       4.52276000      14.70498000       0.03829100       0.00633700      -0.14341600
O        5.11078000       7.32379000      14.80417000       0.02002900       0.01735200       0.09139400
Zr       5.09472000       2.65418000      25.39273000      -0.11793600      -0.10794600      -0.06402000
Zr       1.86692000       0.72515000      27.74502000       0.15022400       0.20518400      -0.16844900
Zr       2.14366000       4.02400000      27.60776000      -0.08697700      -0.03165000      -0.24995400
Zr       5.51289000       6.66318000      25.75080000      -0.11480000      -0.03981800      -0.24879800
Zr       1.59849000       2.82450000      10.66542000      -0.15022400      -0.20518400       0.16844900
Zr       3.51670000       0.89547000      13.01771000       0.11793600       0.10794600       0.06402000
Zr       3.93882000       4.27659000      12.65964000       0.11480000       0.03981800       0.24879800
Zr       1.25837000       6.70720000      18.27668000       0.07974800      -0.10537900       0.01826000
Zr       3.09217000       0.54927000      16.39405000      -0.03351500      -0.04096800      -0.12433200
Zr       3.49609000       4.56210000      16.74209000      -0.09645400      -0.03136700      -0.06695500
Zr       0.80962000       6.37767000      21.66835000       0.09645400       0.03136700       0.06695500
Zr       2.58070000       4.56529000      24.17047000       0.20472100      -0.15630300      -0.06399200
Zr       2.20104000       0.52357000      23.80727000       0.01806400       0.02070300      -0.10484500
Zr       0.37324000       3.00038000      22.01639000       0.03351500       0.04096800       0.12433200
Zr       1.72500000       6.37448000      14.23997000      -0.20472100       0.15630300       0.06399200
Zr       0.83257000       2.69165000      17.98091000       0.12299200       0.01057300       0.00322300
Zr       2.63284000       0.85800000      20.42954000      -0.12299200      -0.01057300      -0.00322300
Zr       3.04734000       4.23257000      20.13376000      -0.07974800       0.10537900      -0.01826000
Zr       1.26437000       3.02607000      14.60317000      -0.01806400      -0.02070300       0.10484500
Zr       2.16205000       6.91577000      10.80268000       0.08697700       0.03165000       0.24995400
