18
Lattice="23.027634 0.0 0.0 0.0 20.0 0.0 0.0 0.0 20.0" Properties=species:S:1:pos:R:3:forces:R:3 energy=-155.24380828 stress="-8.47134 0.84926 -0.85761 0.84926 0.28213 1.02585 -0.85761 1.02585 0.28229" pbc="T T T"
Zr       3.00567000      10.00064000      10.00040000       0.89613500       0.19961400      -0.19938300
Zr      13.89294000       9.69925000      10.30112000      -0.46535300       0.44068200      -0.44135700
Zr      20.02396000      10.00197000       9.99955000      -1.37782600      -0.05484700       0.05323700
Zr       0.00102000       9.99863000       9.99839000       0.11436000      -0.07107200       0.07040600
Zr       6.04211000      10.19550000       9.80644000       0.10835400      -0.12111200       0.12123700
Zr      16.91292000       9.95065000      10.05064000       0.35979200       0.05863300      -0.05917200
O        1.50353000      10.93151000       9.06921000       0.01382500      -0.01590200       0.01410300
O       12.88849000      10.75468000       9.24555000       0.54966500      -0.46936900       0.47008500
O       18.45993000      10.88419000       9.11888000      -0.03077600       0.22072600      -0.22187400
O        1.50337000       9.06756000      10.92965000      -0.26804000      -0.06079200       0.06094200
O        7.03032000       9.14172000      10.85946000      -0.36535800       0.20568500      -0.20545600
O       18.48095000       9.07953000      10.92094000       0.06841700      -0.29402700       0.29352900
O        4.52398000      11.01653000      10.79849000      -0.19824800       0.25060000       0.39042500
O       15.39120000      10.73395000      11.09795000       0.40773400       0.14754200       0.08215400
O       21.52806000      10.93026000      10.93092000      -0.01381500       0.03238700      -0.00126200
O        4.52413000       9.20399000       8.98407000      -0.19756800      -0.38862100      -0.25148000
O       15.39152000       8.90349000       9.26625000       0.40923900      -0.08264500      -0.14774500
O       21.52440000       9.07012000       9.06684000      -0.01053700       0.00251700      -0.02838900
