18
Lattice="23.027634 0.0 0.0 0.0 20.0 0.0 0.0 0.0 20.0" Properties=species:S:1:pos:R:3:forces:R:3 energy=-155.38640153 stress="-1.32085 0.29642 -0.29867 0.29642 -0.06972 -0.19709 -0.29867 -0.19709 -0.06722" pbc="T T T"
Zr       3.00567000      10.00064000      10.00040000       0.25397300       0.02703300      -0.02714600
Zr      14.01594000       9.70497000      10.29514000       0.08192600      -0.04440700       0.04497800
Zr      20.02396000      10.00197000       9.99955000      -0.21241500      -0.03720800       0.03543700
Zr       0.00102000       9.99863000       9.99839000       0.11584300      -0.06766200       0.06692600
Zr       5.99185000      10.21705000       9.78497000      -0.06280300       0.00109800      -0.00089700
Zr      17.00600000       9.95379000      10.04747000      -0.03658300      -0.00467800       0.00535200
O        1.50353000      10.93151000       9.06921000      -0.02256600       0.01592300      -0.01786700
O       12.99316000      10.73004000       9.27054000       0.10277100       0.02548800      -0.02618400
O       18.49722000      10.90817000       9.09486000       0.05430300       0.05378800      -0.05538000
O        1.50337000       9.06756000      10.92965000      -0.27264200      -0.05745100       0.05746800
O        6.92927000       9.15577000      10.84508000       0.06776100      -0.08076800       0.08129600
O       18.54254000       9.04973000      10.95070000      -0.02563300       0.00064500      -0.00126300
O        4.49157000      11.01534000      10.84174000      -0.00329900       0.10517400      -0.05269800
O       15.52022000      10.76786000      11.09133000      -0.02578800      -0.05147800      -0.02944200
O       21.52806000      10.93026000      10.93092000       0.00590800       0.04590800       0.01608000
O        4.49186000       9.16087000       8.98522000      -0.00349900       0.05282900      -0.10516100
O       15.52078000       8.91015000       9.23215000      -0.02646200       0.03084600       0.05066400
O       21.52440000       9.07012000       9.06684000       0.00920600      -0.01507800      -0.04216400
