18
Lattice="23.027634 0.0 0.0 0.0 20.0 0.0 0.0 0.0 20.0" Properties=species:S:1:pos:R:3:forces:R:3 energy=-155.39371986 stress="-0.94183 0.23006 -0.23406 0.23006 -0.10696 -0.02836 -0.23406 -0.02836 -0.10658" pbc="T T T"
Zr       3.00567000      10.00064000      10.00040000       0.29604200       0.10457700      -0.10514100
Zr      14.02861000       9.69699000      10.30311000       0.01569600      -0.08327100       0.08165900
Zr      20.02396000      10.00197000       9.99955000      -0.16967900      -0.01854800       0.01635700
Zr       0.00102000       9.99863000       9.99839000       0.07881300      -0.06958200       0.06881200
Zr       5.99462000      10.21279000       9.78928000      -0.07609600       0.04462000      -0.04524600
Zr      17.00941000       9.95717000      10.04420000       0.17967700       0.07723900      -0.07889000
O        1.50353000      10.93151000       9.06921000       0.00675800       0.00119700      -0.00309200
O       13.02965000      10.73069000       9.26991000       0.00179400       0.08204200      -0.08183300
O       18.50972000      10.91672000       9.08626000      -0.03868000      -0.05899800       0.06047000
O        1.50337000       9.06756000      10.92965000      -0.26352700      -0.06279600       0.06272000
O        6.92643000       9.14757000      10.85319000       0.01916700      -0.06333400       0.06333900
O       18.54233000       9.04945000      10.95094000      -0.05609400       0.03742500      -0.03712800
O        4.49134000      11.03265000      10.82893000      -0.00404100      -0.01314500      -0.05526800
O       15.52889000      10.76405000      11.08855000      -0.02118300       0.02064400       0.08415500
O       21.52806000      10.93026000      10.93092000       0.02658900       0.04749100       0.01873900
O        4.49163000       9.17374000       8.96786000      -0.00473700       0.05449300       0.01264200
O       15.52950000       8.91308000       9.23573000      -0.02036800      -0.08227600      -0.01853800
O       21.52440000       9.07012000       9.06684000       0.02986800      -0.01777700      -0.04376000
