18
Lattice="23.027634 0.0 0.0 0.0 20.0 0.0 0.0 0.0 20.0" Properties=species:S:1:pos:R:3:forces:R:3 energy=-155.40000293 stress="-0.57822 0.28972 -0.29344 0.28972 -0.22965 0.00954 -0.29344 0.00954 -0.22965" pbc="T T T"
Zr       3.00567000      10.00064000      10.00040000       0.24172600       0.15088300      -0.15300700
Zr      14.03808000       9.68669000      10.31325000      -0.01025500       0.00940400      -0.00911900
Zr      20.02396000      10.00197000       9.99955000      -0.12718800      -0.01525200       0.01360400
Zr       0.00102000       9.99863000       9.99839000       0.08693300      -0.07199800       0.07109000
Zr       5.99168000      10.21499000       9.78718000       0.00306500      -0.00439700       0.00357700
Zr      17.01224000       9.97144000      10.03026000       0.00980600      -0.00190800       0.00269600
O        1.50353000      10.93151000       9.06921000       0.01163200      -0.00824100       0.00680700
O       13.08579000      10.74464000       9.25597000       0.00907500      -0.00314100       0.00263400
O       18.52185000      10.92291000       9.08062000       0.00047100      -0.00337800       0.00487800
O        1.50337000       9.06756000      10.92965000      -0.27999200      -0.07121900       0.07072200
O        6.89403000       9.13481000      10.86558000      -0.00867300      -0.00141900       0.00104100
O       18.52802000       9.05860000      10.94165000       0.00998600      -0.00077200       0.00159600
O        4.48863000      11.04445000      10.81488000       0.00452700      -0.00546800      -0.00623000
O       15.53580000      10.74912000      11.10759000      -0.00209400      -0.00250200       0.00207500
O       21.52806000      10.93026000      10.93092000       0.02185900       0.04475700       0.02197000
O        4.48893000       9.18833000       8.95552000       0.00512200       0.00745800       0.00557500
O       15.53671000       8.89450000       9.25058000      -0.00131900      -0.00191600       0.00156400
O       21.52440000       9.07012000       9.06684000       0.02531800      -0.02089100      -0.04147300
