18
Lattice="23.027634 0.0 0.0 0.0 20.0 0.0 0.0 0.0 20.0" Properties=species:S:1:pos:R:3:forces:R:3 energy=-155.4000321 stress="-0.56237 0.27308 -0.27605 0.27308 -0.19349 -0.02905 -0.27605 -0.02905 -0.19565" pbc="T T T"
Zr       3.00567000      10.00064000      10.00040000       0.24632700       0.15251500      -0.15350700
Zr      14.03792000       9.68739000      10.31252000       0.01606700      -0.01699400       0.01659200
Zr      20.02396000      10.00197000       9.99955000      -0.13252800      -0.01491400       0.01377000
Zr       0.00102000       9.99863000       9.99839000       0.08803400      -0.07192800       0.07121600
Zr       5.99208000      10.21477000       9.78736000      -0.00746200       0.00047800       0.00011000
Zr      17.01223000       9.97092000      10.03093000       0.00909900      -0.01285000       0.01320800
O        1.50353000      10.93151000       9.06921000       0.01083600      -0.00788500       0.00677200
O       13.08733000      10.74524000       9.25540000      -0.01301000       0.02170400      -0.02181500
O       18.52039000      10.92231000       9.08137000       0.01068600       0.00145700      -0.00091100
O        1.50337000       9.06756000      10.92965000      -0.28094800      -0.07125400       0.07089300
O        6.89215000       9.13385000      10.86646000      -0.00168200      -0.00731300       0.00699200
O       18.52897000       9.05808000      10.94222000       0.00843500       0.00261800      -0.00257400
O        4.48877000      11.04435000      10.81456000       0.00556400      -0.00215900      -0.00384200
O       15.53597000      10.74906000      11.10831000      -0.00545100      -0.00628200      -0.00358800
O       21.52806000      10.93026000      10.93092000       0.02134700       0.04487300       0.02185000
O        4.48905000       9.18881000       8.95554000       0.00506800       0.00432100       0.00121100
O       15.53701000       8.89396000       9.25054000      -0.00528700       0.00416100       0.00507000
O       21.52440000       9.07012000       9.06684000       0.02490300      -0.02054900      -0.04144800
