18
Lattice="23.027634 0.0 0.0 0.0 20.0 0.0 0.0 0.0 20.0" Properties=species:S:1:pos:R:3:forces:R:3 energy=-155.40016988 stress="-0.52225 0.28178 -0.28579 0.28178 -0.20158 0.01319 -0.28579 0.01319 -0.20426" pbc="T T T"
Zr       3.00567000      10.00064000      10.00040000       0.25454000       0.15530200      -0.15748800
Zr      14.03818000       9.68813000      10.31158000      -0.01709900       0.00428900      -0.00364300
Zr      20.02396000      10.00197000       9.99955000      -0.11186300      -0.00806300       0.00753500
Zr       0.00102000       9.99863000       9.99839000       0.08564100      -0.07258100       0.07156100
Zr       5.99231000      10.21399000       9.78824000       0.00348300      -0.00643900       0.00527800
Zr      17.01317000       9.96773000      10.03448000      -0.00507600       0.01082000      -0.00893400
O        1.50353000      10.93151000       9.06921000       0.01278700      -0.00860300       0.00760500
O       13.09027000      10.74808000       9.25263000       0.00373800       0.00029000      -0.00019300
O       18.51901000      10.92146000       9.08263000      -0.00192200      -0.00746800       0.00795200
O        1.50337000       9.06756000      10.92965000      -0.27975300      -0.07106800       0.07025500
O        6.88810000       9.13090000      10.86917000      -0.00094100      -0.00181300       0.00142200
O       18.53172000       9.05711000      10.94329000       0.00531500      -0.01280200       0.01224600
O        4.48933000      11.04457000      10.81390000      -0.00522700       0.00026800       0.00067600
O       15.53569000      10.74764000      11.10922000       0.00601300      -0.00209200       0.00568400
O       21.52806000      10.93026000      10.93092000       0.02240100       0.04553800       0.02153200
O        4.48958000       9.18981000       8.95495000      -0.00452000       0.00088000       0.00014400
O       15.53703000       8.89361000       9.25168000       0.00628800      -0.00599600       0.00098200
O       21.52440000       9.07012000       9.06684000       0.02619600      -0.02046100      -0.04261400
