18
Lattice="23.027634 0.0 0.0 0.0 20.0 0.0 0.0 0.0 20.0" Properties=species:S:1:pos:R:3:forces:R:3 energy=-155.40019151 stress="-0.53868 0.26195 -0.26519 0.26195 -0.17883 -0.01081 -0.26519 -0.01081 -0.18344" pbc="T T T"
Zr       3.00567000      10.00064000      10.00040000       0.25319300       0.15591200      -0.15787700
Zr      14.03746000       9.68838000      10.31132000       0.01235900      -0.01050400       0.01002500
Zr      20.02396000      10.00197000       9.99955000      -0.11265900      -0.01467800       0.01408500
Zr       0.00102000       9.99863000       9.99839000       0.08519700      -0.07270100       0.07167900
Zr       5.99243000      10.21364000       9.78857000      -0.00667500       0.00211900      -0.00266500
Zr      17.01313000       9.96781000      10.03448000      -0.00267000      -0.00093200       0.00126200
O        1.50353000      10.93151000       9.06921000       0.01231600      -0.00848000       0.00752400
O       13.09060000      10.74820000       9.25251000      -0.00846200       0.01552500      -0.01580300
O       18.51907000      10.92121000       9.08293000      -0.00222600      -0.00279000       0.00316800
O        1.50337000       9.06756000      10.92965000      -0.28018000      -0.07142400       0.07059500
O        6.88791000       9.13068000      10.86937000       0.00427800      -0.00936200       0.00887400
O       18.53206000       9.05661000      10.94378000       0.00039300      -0.00141300       0.00186400
O        4.48915000      11.04466000      10.81394000      -0.00132300      -0.00184100       0.00001700
O       15.53585000      10.74737000      11.10941000      -0.00131600      -0.00168900       0.00440900
O       21.52806000      10.93026000      10.93092000       0.02322600       0.04577400       0.02166700
O        4.48943000       9.18984000       8.95483000      -0.00122700       0.00086300       0.00149600
O       15.53721000       8.89346000       9.25189000      -0.00125800      -0.00379800       0.00256500
O       21.52440000       9.07012000       9.06684000       0.02703300      -0.02057900      -0.04288500
