18
Lattice="23.027634 0.0 0.0 0.0 20.0 0.0 0.0 0.0 20.0" Properties=species:S:1:pos:R:3:forces:R:3 energy=-155.4001963 stress="-0.55593 0.27095 -0.27404 0.27095 -0.19325 4e-05 -0.27404 4e-05 -0.19832" pbc="T T T"
Zr       3.00567000      10.00064000      10.00040000       0.25077600       0.15608400      -0.15788900
Zr      14.03736000       9.68836000      10.31135000       0.01302100      -0.00467200       0.00423400
Zr      20.02396000      10.00197000       9.99955000      -0.11253000      -0.01699700       0.01644600
Zr       0.00102000       9.99863000       9.99839000       0.08460300      -0.07262000       0.07164100
Zr       5.99239000      10.21355000       9.78864000      -0.00588100       0.00020600      -0.00026800
Zr      17.01309000       9.96783000      10.03449000       0.00137500      -0.00459900       0.00455500
O        1.50353000      10.93151000       9.06921000       0.01243700      -0.00831000       0.00741600
O       13.09062000      10.74841000       9.25231000      -0.00424200       0.01047400      -0.01072100
O       18.51907000      10.92110000       9.08306000      -0.00333400      -0.00106500       0.00155900
O        1.50337000       9.06756000      10.92965000      -0.28006700      -0.07141800       0.07062600
O        6.88790000       9.13051000      10.86952000       0.00215200      -0.00689900       0.00639300
O       18.53217000       9.05643000      10.94396000      -0.00103900       0.00098000      -0.00124500
O        4.48908000      11.04467000      10.81395000       0.00015200      -0.00181600      -0.00009700
O       15.53588000      10.74726000      11.10951000      -0.00413500      -0.00242800       0.00410700
O       21.52806000      10.93026000      10.93092000       0.02335200       0.04607200       0.02164800
O        4.48937000       9.18986000       8.95481000       0.00007300       0.00076800       0.00130400
O       15.53725000       8.89337000       9.25199000      -0.00388000      -0.00325300       0.00343900
O       21.52440000       9.07012000       9.06684000       0.02716900      -0.02050800      -0.04314700
