18
Lattice="23.027634 0.0 0.0 0.0 20.0 0.0 0.0 0.0 20.0" Properties=species:S:1:pos:R:3:forces:R:3 energy=-155.40057637 stress="-0.65752 0.29001 -0.29542 0.29001 -0.22265 0.02859 -0.29542 0.02859 -0.22425" pbc="T T T"
Zr       3.00567000      10.00064000      10.00040000       0.24409800       0.14634300      -0.14845000
Zr      14.03260000       9.69171000      10.30745000      -0.00655200       0.00104000      -0.00232500
Zr      20.02396000      10.00197000       9.99955000      -0.13930200      -0.03039900       0.03408800
Zr       0.00102000       9.99863000       9.99839000       0.08610300      -0.07336300       0.07183500
Zr       5.99362000      10.20246000       9.80012000       0.00666800      -0.00378600       0.00224600
Zr      17.01188000       9.95453000      10.05028000       0.01023300      -0.00814900       0.00595800
O        1.50353000      10.93151000       9.06921000       0.01099600      -0.00487800       0.00558200
O       13.10629000      10.76164000       9.23894000       0.01132500      -0.00534700       0.00600600
O       18.50719000      10.91434000       9.09258000       0.00371000       0.00365000      -0.00377400
O        1.50337000       9.06756000      10.92965000      -0.27385400      -0.06806600       0.06597900
O        6.88053000       9.11419000      10.88348000      -0.00150200       0.00336500      -0.00384200
O       18.54187000       9.04931000      10.95139000      -0.00369600       0.00691400      -0.00609300
O        4.48988000      11.03919000      10.81950000      -0.00298100       0.00072500       0.00261500
O       15.53180000      10.73662000      11.12093000       0.00523600       0.00270300      -0.00070000
O       21.52806000      10.93026000      10.93092000       0.02086100       0.04730700       0.01748200
O        4.49022000       9.18636000       8.95864000      -0.00303800      -0.00320900       0.00058800
O       15.53519000       8.88406000       9.26250000       0.00553900       0.00134600      -0.00097000
O       21.52440000       9.07012000       9.06684000       0.02615500      -0.01619600      -0.04622600
