17
Lattice="18.027634 0.0 0.0 0.0 20.0 0.0 0.0 0.0 20.0" Properties=species:S:1:pos:R:3:forces:R:3 energy=-139.68591758 stress="-27.51006 2.43011 2.20593 2.43011 -15.16505 -3.6481 2.20593 -3.6481 -4.74781" pbc="T T T"
Zr       2.98228000      10.15502000       9.79876000      -0.21647300       0.02245400      -0.00063200
Zr       8.54599000       7.69192000       9.41884000       1.25347100       3.71313800       1.27489500
Zr      14.94450000      10.14209000       9.79485000       0.37590500      -0.02827000      -0.05685900
Zr      -0.02100000      10.22568000       9.78111000      -0.80681000       0.00887000      -0.00087600
Zr       6.00722000       9.97758000       9.75084000       0.18755300      -0.55633700       0.28713100
Zr      11.80978000      10.14292000       9.83068000      -0.63744000       0.87919400      -0.48588300
O        1.54413000      11.13128000       8.85964000       0.24837600      -0.10574400       0.10091000
O       13.40395000      10.95489000       8.87235000      -0.89308600      -0.05542500      -0.14746200
O        1.48954000       9.26309000      10.72557000       0.18101100       0.06670200      -0.04536500
O        7.20942000       8.73834000      10.72985000       0.94903700      -1.21451500      -2.14584100
O       13.52953000       9.18520000      10.72889000      -1.28898200       0.58638800       0.09126400
O        4.58949000      10.99327000      10.69757000       0.52193000      -0.22019300      -0.19113200
O       10.18023000      12.29844000      10.27098000       1.87199000      -2.93601400      -0.30870700
O       16.51593000      11.13367000      10.70742000      -0.30193800      -0.25456000      -0.19359800
O        4.47572000       9.13962000       8.86270000       0.51346100       0.17337600       0.18511000
O       10.65420000       8.71186000       8.97660000      -1.68627600      -0.16978300       1.41391500
O       16.55544000       9.27192000       8.84416000      -0.27173000       0.09071900       0.22313300
