17
Lattice="18.027634 0.0 0.0 0.0 20.0 0.0 0.0 0.0 20.0" Properties=species:S:1:pos:R:3:forces:R:3 energy=-139.99642735 stress="-25.99959 1.76108 1.99836 1.76108 -14.49305 -2.36147 1.99836 -2.36147 -2.13758" pbc="T T T"
Zr       2.98110000      10.15717000       9.79240000      -0.07100800      -0.01925200       0.09928900
Zr       8.58972000       7.62551000       9.40690000       1.50311200       3.73820300       0.90376700
Zr      14.92820000      10.14036000       9.78661000      -0.50354000      -0.14258400       0.09006600
Zr      -0.04862000      10.22699000       9.78099000       0.28374400      -0.06523400       0.00364400
Zr       5.99877000       9.94947000       9.74138000       0.98330100      -0.12649200       0.03065700
Zr      11.78379000      10.20160000       9.78390000      -1.26104100       0.56131900      -0.11745700
O        1.54982000      11.12631000       8.86320000      -0.03285900      -0.06207900       0.06591500
O       13.36442000      10.94589000       8.85771000      -0.11126300       0.23352700      -0.52447600
O        1.49394000       9.26595000      10.72227000      -0.02835400       0.13916200      -0.11078600
O        7.25317000       8.66604000      10.58626000       1.15250400      -1.34463500      -1.44791400
O       13.45735000       9.22183000      10.71686000      -0.69566600       0.72880500       0.00305500
O        4.62763000      10.97439000      10.67136000      -0.06956100       0.10540300       0.21244000
O       10.18810000      12.41109000      10.15121000       1.88339400      -3.04419700      -0.21826900
O       16.50012000      11.12191000      10.69849000      -0.51382500      -0.05999000      -0.02462800
O        4.50513000       9.15093000       8.86611000      -0.33698500      -0.29234800      -0.33646800
O       10.58733000       8.70288000       9.01224000      -1.74081200      -0.27619100       1.30457900
O       16.54452000       9.27341000       8.85155000      -0.44114000      -0.07341500       0.06658600
