17
Lattice="18.027634 0.0 0.0 0.0 20.0 0.0 0.0 0.0 20.0" Properties=species:S:1:pos:R:3:forces:R:3 energy=-141.40856027 stress="-29.78852 4.93878 0.31488 4.93878 -16.2655 -0.99933 0.31488 -0.99933 -0.79871" pbc="T T T"
Zr       2.99051000      10.15585000       9.78591000       0.30395900       0.02356100       0.02072900
Zr       8.83137000       7.51591000       9.34286000       0.29977500       2.08459200       0.32102500
Zr      14.84233000      10.13760000       9.76874000      -0.78591100       0.02981700       0.01505300
Zr      -0.07673000      10.22134000       9.77945000      -0.18592300      -0.06016600       0.00960300
Zr       6.04358000       9.88750000       9.68960000       0.04383900      -0.43524200       0.12832700
Zr      11.64677000      10.38807000       9.68759000      -0.58136900       1.66425000      -0.11547500
O        1.54379000      11.11612000       8.87093000      -0.16894300      -0.01881700       0.02193500
O       13.30174000      10.95994000       8.76010000      -0.10102700       0.18511200      -0.31883400
O        1.49223000       9.28047000      10.70880000      -0.17243300       0.01388600       0.00749900
O        7.38671000       8.47526000      10.26294000       0.32784300      -0.11597800      -0.55588700
O       13.27075000       9.35320000      10.69414000      -0.42131200       0.81491600       0.02140700
O        4.68322000      10.94822000      10.64388000       0.07405900      -0.19443700      -0.05521900
O       10.27949000      12.57111000       9.83428000       2.29092800      -4.15684400       0.04852500
O       16.42301000      11.09850000      10.68100000      -0.24365200      -0.02850800      -0.07155600
O        4.50954000       9.13935000       8.82225000      -0.13816900      -0.06149500      -0.11779500
O       10.35583000       8.66331000       9.13851000      -0.30703900       0.34115400       0.55743800
O       16.48617000       9.26299000       8.86832000      -0.23462400      -0.08580100       0.08322600
