17
Lattice="18.027634 0.0 0.0 0.0 20.0 0.0 0.0 0.0 20.0" Properties=species:S:1:pos:R:3:forces:R:3 energy=-140.39537329 stress="-23.71938 2.79452 0.19042 2.79452 -10.20459 -0.5759 0.19042 -0.5759 -0.5314" pbc="T T T"
Zr       3.02725000      10.16471000       9.79226000      -0.32500300       0.01046700       0.00037600
Zr       8.80802000       7.66201000       9.37881000       0.31808300       1.30342200       0.20618000
Zr      14.89834000      10.10031000       9.78625000      -0.27078100      -0.03387600      -0.03713900
Zr      -0.04521000      10.22360000       9.77792000      -0.01534600      -0.04286000      -0.00505100
Zr       6.05244000       9.91592000       9.73299000       0.06827900      -0.18300200      -0.00516300
Zr      11.78368000      10.17047000       9.76580000      -0.41886300       0.90085900      -0.05990700
O        1.53822000      11.12098000       8.87550000      -0.02800800      -0.04617100       0.05201100
O       13.33917000      10.86054000       8.76648000      -0.08078800       0.09789300      -0.19741900
O        1.48213000       9.28725000      10.70943000      -0.00975900       0.04061400      -0.03370500
O        7.40116000       8.55504000      10.35761000       0.26166200      -0.12575900      -0.32709300
O       13.31069000       9.24898000      10.71930000      -0.39815700       0.61527300       0.09918300
O        4.66142000      10.96908000      10.66678000       0.07092700      -0.08304000       0.02898200
O       10.05527000      12.68495000       9.98508000       1.35265900      -2.42545800       0.02366900
O       16.42015000      11.09116000      10.68197000      -0.17582300      -0.01942800      -0.05722100
O        4.51876000       9.16622000       8.82979000      -0.06155100      -0.04805100      -0.08921000
O       10.44549000       8.69060000       9.20078000      -0.17950300       0.16240700       0.34250500
O       16.48570000       9.25531000       8.86928000      -0.10802800      -0.12328900       0.05900400
