17
Lattice="18.027634 0.0 0.0 0.0 20.0 0.0 0.0 0.0 20.0" Properties=species:S:1:pos:R:3:forces:R:3 energy=-140.67127673 stress="-25.18828 3.2801 0.26516 3.2801 -11.1417 -0.65988 0.26516 -0.65988 -0.5291" pbc="T T T"
Zr       3.02221000      10.16407000       9.79117000      -0.34640800       0.00739400       0.00053500
Zr       8.82817000       7.64075000       9.36926000       0.33316400       1.46463500       0.24756600
Zr      14.87965000      10.09757000       9.78132000      -0.19027800      -0.01196400      -0.03087300
Zr      -0.05307000      10.22136000       9.77758000      -0.16789300      -0.04986000      -0.00340400
Zr       6.04998000       9.90772000       9.72294000       0.09981400      -0.21334300       0.00522200
Zr      11.75723000      10.22742000       9.75684000      -0.50731100       1.00127800      -0.10212900
O        1.53459000      11.12001000       8.87676000       0.00560400      -0.04142300       0.03974100
O       13.33656000      10.86481000       8.75033000      -0.12303400       0.14372400      -0.20616500
O        1.47945000       9.28794000      10.70881000       0.02692100       0.02778600      -0.02395800
O        7.41132000       8.54586000      10.32912000       0.26751200      -0.14774100      -0.36319400
O       13.28551000       9.28513000      10.72231000      -0.41920300       0.65918300       0.11919000
O        4.66696000      10.96008000      10.66394000       0.06280400      -0.08175300       0.02915600
O       10.09643000      12.64439000       9.95061000       1.57848000      -2.72311000       0.03790900
O       16.40998000      11.08861000      10.67727000      -0.17547700      -0.02780100      -0.07802400
O        4.51448000       9.16485000       8.82315000      -0.08138200      -0.06320000      -0.09118300
O       10.44619000       8.70062000       9.21006000      -0.24554400       0.16205000       0.33928300
O       16.48228000       9.24749000       8.87230000      -0.11777100      -0.10585600       0.08032700
