17
Lattice="18.027634 0.0 0.0 0.0 20.0 0.0 0.0 0.0 20.0" Properties=species:S:1:pos:R:3:forces:R:3 energy=-141.52931781 stress="-29.37278 4.40931 0.42597 4.40931 -13.96102 -1.05441 0.42597 -1.05441 -0.6678" pbc="T T T"
Zr       2.99163000      10.16169000       9.78872000       0.47081400      -0.02296700      -0.00762000
Zr       8.87286000       7.58106000       9.34770000       0.53553000       1.96319300       0.29961000
Zr      14.84134000      10.09608000       9.77069000      -0.77946700       0.04717400      -0.02214700
Zr      -0.07944000      10.21528000       9.77721000      -0.38357600      -0.05397400      -0.00258800
Zr       6.05383000       9.88416000       9.69949000      -0.47050200      -0.16297200      -0.06796000
Zr      11.68333000      10.37435000       9.72637000      -0.71797900       1.46900700      -0.22294600
O        1.53246000      11.11550000       8.87990000      -0.20126500       0.04941500      -0.05999000
O       13.32526000      10.88278000       8.71326000      -0.09701100       0.21495100      -0.13722000
O        1.47944000       9.28894000      10.70674000      -0.17142800      -0.06731100       0.07099000
O        7.43009000       8.52016000      10.25391000       0.31890200      -0.26875000      -0.35961300
O       13.23013000       9.37283000      10.72973000      -0.26145200       0.80819200       0.09684200
O        4.68037000      10.94141000      10.65718000       0.09170100      -0.24050600      -0.08675900
O       10.21556000      12.54568000       9.86139000       2.24465100      -3.70020400       0.08321300
O       16.38616000      11.08416000      10.66501000      -0.02799100       0.01179800      -0.06570000
O        4.50227000       9.15671000       8.80441000       0.01693000       0.03165300       0.07023700
O       10.43783000       8.71989000       9.22181000      -0.57488300       0.03610900       0.33633500
O       16.47187000       9.23210000       8.88016000       0.00702700      -0.11480700       0.07531600
