17
Lattice="18.027634 0.0 0.0 0.0 20.0 0.0 0.0 0.0 20.0" Properties=species:S:1:pos:R:3:forces:R:3 energy=-144.56449296 stress="-25.11595 4.84566 -0.08287 4.84566 -12.72873 -0.13452 -0.08287 -0.13452 -0.23392" pbc="T T T"
Zr       2.93733000      10.14375000       9.78054000      -0.03206200      -0.03364100      -0.00767300
Zr       8.97510000       7.48728000       9.27466000       0.08642300       1.57287400       0.16540000
Zr      14.70493000      10.16593000       9.71774000       0.08086200       0.20299000      -0.02988300
Zr      -0.17542000      10.19088000       9.78049000      -0.16553300      -0.04523400       0.01160500
Zr       5.99214000       9.77558000       9.60626000      -0.23151600      -0.19714600      -0.07966800
Zr      11.57010000      10.64170000       9.55404000      -1.07529800       2.08762700      -0.12573200
O        1.50002000      11.10007000       8.88092000      -0.18468800      -0.02843500      -0.02540200
O       13.30731000      11.02252000       8.60350000       0.13716100       0.03624000      -0.25944800
O        1.45514000       9.27599000      10.70940000      -0.11666600      -0.04917600       0.04051800
O        7.44768000       8.40990000      10.00916000       0.02461700      -0.07919500      -0.08837000
O       13.17151000       9.62631000      10.75553000      -0.22424200       0.49348800       0.00560800
O        4.72400000      10.85608000      10.61829000      -0.01699000      -0.17024300      -0.03565800
O       10.56785000      12.33916000       9.59405000       2.22113000      -4.10647000       0.34036500
O       16.32536000      11.09742000      10.63053000      -0.00288400       0.15211400      -0.06632200
O        4.43040000       9.11242000       8.74032000      -0.21042900      -0.11453200      -0.02282900
O       10.33978000       8.75319000       9.19089000      -0.12720300       0.29092800       0.11260600
O       16.43016000       9.19015000       8.90169000      -0.16268100      -0.01219000       0.06488300
