17
Lattice="18.027634 0.0 0.0 0.0 20.0 0.0 0.0 0.0 20.0" Properties=species:S:1:pos:R:3:forces:R:3 energy=-145.47964606 stress="-17.6285 1.90191 0.09805 1.90191 -5.27372 0.22075 0.09805 0.22075 -0.15359" pbc="T T T"
Zr       2.87711000      10.10974000       9.77263000      -0.09671300      -0.05002500      -0.01679200
Zr       9.00615000       7.55411000       9.19168000      -0.01797800       1.02642600       0.02717500
Zr      14.69618000      10.25245000       9.68646000       0.06089200       0.13560100       0.02165200
Zr      -0.22155000      10.17342000       9.78503000      -0.04823500      -0.00601200       0.00164300
Zr       5.90549000       9.67655000       9.50103000      -0.14049900      -0.13668100      -0.06574200
Zr      11.62558000      10.64666000       9.41148000       0.13965000      -0.07853900      -0.15169600
O        1.43687000      11.07043000       8.87568000      -0.06281300      -0.05050200      -0.03830500
O       13.40711000      11.03184000       8.44921000       0.12533400      -0.08685500      -0.18936900
O        1.40690000       9.25276000      10.72139000      -0.05333200      -0.02162000       0.03081600
O        7.40230000       8.35578000       9.87751000      -0.02666300       0.03947900       0.05381200
O       13.11212000       9.84808000      10.73796000       0.01379000       0.21727500      -0.00624600
O        4.71267000      10.76165000      10.57608000      -0.06529500      -0.08926600      -0.05405700
O       10.73062000      12.22284000       9.51562000       0.48723000      -1.05414000       0.38653000
O       16.32438000      11.17365000      10.58489000       0.10345100       0.17181400      -0.05972700
O        4.29810000       9.05002000       8.68332000      -0.18720900      -0.12571500      -0.02701900
O       10.33482000       8.84230000       9.13953000      -0.15088600       0.10762200      -0.00224900
O       16.36684000       9.17853000       8.92874000      -0.08072400       0.00113800       0.08957500
