17
Lattice="18.027634 0.0 0.0 0.0 20.0 0.0 0.0 0.0 20.0" Properties=species:S:1:pos:R:3:forces:R:3 energy=-145.4730067 stress="-17.36465 1.86305 0.05898 1.86305 -4.99399 0.28305 0.05898 0.28305 -0.23784" pbc="T T T"
Zr       2.87319000      10.11528000       9.77464000      -0.09842500      -0.05330800      -0.00399900
Zr       9.02597000       7.54359000       9.20177000      -0.02974600       1.01646500       0.02518400
Zr      14.68790000      10.25444000       9.68821000       0.17766700       0.16225800      -0.01881000
Zr      -0.22892000      10.16925000       9.78498000      -0.07313800      -0.00042000       0.01069700
Zr       5.90238000       9.66849000       9.50374000      -0.14552900      -0.12043800      -0.08855100
Zr      11.63107000      10.64624000       9.38565000       0.09877700      -0.07510100      -0.05742200
O        1.42650000      11.07458000       8.88342000      -0.03600000      -0.04062000      -0.05084600
O       13.41697000      11.04188000       8.43897000       0.15833500      -0.13347700      -0.17834300
O        1.40478000       9.24951000      10.71837000      -0.04179900      -0.02198900       0.02036300
O        7.40393000       8.33959000       9.84643000      -0.01659000       0.04644600       0.06971300
O       13.09988000       9.86966000      10.73920000      -0.00877000       0.17831800      -0.05971500
O        4.71654000      10.75581000      10.58127000      -0.11346500      -0.08870600      -0.03111700
O       10.73581000      12.21766000       9.49423000       0.42427700      -0.94989900       0.37665000
O       16.31533000      11.16705000      10.58990000       0.14783500       0.16498500      -0.06552300
O        4.29263000       9.05914000       8.68007000      -0.21547800      -0.14164100      -0.04446600
O       10.33908000       8.84787000       9.14428000      -0.16578700       0.04688900      -0.03462400
O       16.35896000       9.18165000       8.91949000      -0.06216300       0.01023800       0.13080800
