17
Lattice="18.027634 0.0 0.0 0.0 20.0 0.0 0.0 0.0 20.0" Properties=species:S:1:pos:R:3:forces:R:3 energy=-145.47986053 stress="-17.05705 2.07156 0.18361 2.07156 -4.84208 0.31971 0.18361 0.31971 -0.23934" pbc="T T T"
Zr       2.86992000      10.11635000       9.77614000      -0.14748100      -0.04529000      -0.02633700
Zr       9.03604000       7.54223000       9.20294000      -0.15870700       0.89406000       0.02897400
Zr      14.68978000      10.26037000       9.68564000       0.08131100       0.12212400       0.03533900
Zr      -0.23411000      10.16719000       9.78568000       0.07275700       0.00642300       0.00614100
Zr       5.89597000       9.66297000       9.50004000      -0.11766200      -0.14276400      -0.07280800
Zr      11.63441000      10.64460000       9.37445000       0.09913700       0.02498400      -0.07388300
O        1.42066000      11.07630000       8.88575000      -0.03086300      -0.05415400      -0.03520400
O       13.42867000      11.04206000       8.42966000       0.09323500      -0.12940700      -0.18509900
O        1.40236000       9.24710000      10.71678000      -0.05272900      -0.02332700       0.02787700
O        7.40326000       8.33181000       9.82997000      -0.02855800       0.07987100       0.06008300
O       13.09211000       9.88441000      10.73519000       0.03729500       0.16333300      -0.08304100
O        4.71445000      10.74996000      10.58337000      -0.09683200      -0.09844200      -0.03812400
O       10.73879000      12.21754000       9.48331000       0.45002700      -0.99520300       0.37137700
O       16.31490000      11.16695000      10.59053000       0.14333500       0.20540300      -0.04424400
O        4.28367000       9.06020000       8.67583000      -0.20435200      -0.13369000      -0.03767800
O       10.33896000       8.84909000       9.14239000      -0.06338600       0.14174300      -0.04339100
O       16.35422000       9.18335000       8.91895000      -0.07652700      -0.01566400       0.11001700
