17
Lattice="18.027634 0.0 0.0 0.0 20.0 0.0 0.0 0.0 20.0" Properties=species:S:1:pos:R:3:forces:R:3 energy=-145.58333149 stress="-13.62064 1.26514 0.1437 1.26514 -4.69264 0.0967 0.1437 0.0967 -0.41272" pbc="T T T"
Zr       2.81572000      10.08757000       9.77104000       0.00989500      -0.08004800      -0.02401700
Zr       9.05305000       7.53984000       9.13821000      -0.03151500       0.97140100       0.00434000
Zr      14.70297000      10.34170000       9.66347000      -0.01264600       0.10954000      -0.03200900
Zr      -0.25223000      10.15974000       9.79415000      -0.02190100       0.01864200       0.01199600
Zr       5.80466000       9.57873000       9.41428000      -0.07153000      -0.07189600      -0.06129500
Zr      11.67091000      10.66586000       9.23470000      -0.01099900       0.00253000      -0.02457800
O        1.37930000      11.07047000       8.89044000      -0.03013800      -0.06971800      -0.05449200
O       13.49893000      11.00666000       8.29707000      -0.00851700      -0.04910400      -0.05005700
O        1.36059000       9.21640000      10.72075000      -0.05809400       0.00466100       0.04738400
O        7.37446000       8.30570000       9.66587000       0.02877600       0.03626200       0.06482800
O       13.06023000      10.02645000      10.67046000       0.05038000       0.04477000      -0.01714300
O        4.68097000      10.65398000      10.56303000      -0.01377400      -0.07479200      -0.08546900
O       10.80424000      12.24788000       9.37366000       0.41828400      -0.91171200       0.25532900
O       16.35040000      11.24016000      10.56616000       0.02097500       0.14721300      -0.08721100
O        4.15452000       9.02264000       8.61400000      -0.06449500      -0.12162300      -0.00251600
O       10.33643000       8.87040000       9.05674000      -0.14580000       0.03787900      -0.03725100
O       16.30426000       9.18087000       8.96314000      -0.05890000       0.00599500       0.09216000
