17
Lattice="18.027634 0.0 0.0 0.0 20.0 0.0 0.0 0.0 20.0" Properties=species:S:1:pos:R:3:forces:R:3 energy=-145.58950311 stress="-13.65516 1.19896 0.11345 1.19896 -4.66966 0.12052 0.11345 0.12052 -0.36801" pbc="T T T"
Zr       2.81779000      10.08389000       9.76998000      -0.04271400      -0.07379700      -0.02074000
Zr       9.04710000       7.54265000       9.13151000      -0.01970500       0.99627100       0.00788600
Zr      14.70221000      10.34188000       9.66195000       0.02600300       0.09720300      -0.01797600
Zr      -0.25095000      10.16184000       9.79449000      -0.04081500       0.01575500       0.01095500
Zr       5.80615000       9.58147000       9.41153000      -0.04738400      -0.07868400      -0.06463500
Zr      11.66826000      10.66576000       9.24173000       0.02636700      -0.05344000      -0.03950000
O        1.38263000      11.06793000       8.88816000      -0.01896700      -0.07662800      -0.05036200
O       13.49197000      11.00535000       8.30017000      -0.00206200      -0.04055500      -0.07036200
O        1.36021000       9.21767000      10.72247000      -0.04415000       0.00951100       0.04312000
O        7.37412000       8.31126000       9.67485000       0.03750600       0.02248500       0.06045900
O       13.06498000      10.01907000      10.67197000       0.02959000       0.06421500      -0.00993200
O        4.68150000      10.65467000      10.55999000      -0.01701600      -0.06312800      -0.07976300
O       10.80687000      12.24942000       9.37691000       0.38763000      -0.87661100       0.26861100
O       16.35046000      11.24425000      10.56191000       0.01838300       0.14311500      -0.08614500
O        4.15715000       9.01840000       8.61435000      -0.06799900      -0.12284100      -0.00345700
O       10.33510000       8.86994000       9.05350000      -0.16506700       0.02781400      -0.03105800
O       16.30557000       9.17955000       8.96731000      -0.05960100       0.00931400       0.08290100
