17
Lattice="18.027634 0.0 0.0 0.0 20.0 0.0 0.0 0.0 20.0" Properties=species:S:1:pos:R:3:forces:R:3 energy=-145.6207729 stress="-13.37565 1.15124 0.09713 1.15124 -4.56026 0.11368 0.09713 0.11368 -0.3766" pbc="T T T"
Zr       2.81350000      10.06966000       9.76622000      -0.03004400      -0.06965900      -0.02199200
Zr       9.03560000       7.55511000       9.10255000      -0.02589800       0.97280300       0.01030800
Zr      14.70282000      10.35159000       9.65533000       0.01352300       0.08751100      -0.00835500
Zr      -0.25321000      10.16538000       9.79620000      -0.04366300       0.01894100       0.01262500
Zr       5.80134000       9.57745000       9.39102000      -0.04999600      -0.08262900      -0.05513400
Zr      11.66926000      10.66453000       9.23834000       0.03581600      -0.06243900      -0.04746300
O        1.38382000      11.05637000       8.88098000      -0.02375300      -0.08150200      -0.05137400
O       13.48750000      10.99896000       8.28940000       0.00543100      -0.03344100      -0.07002500
O        1.35310000       9.21853000      10.72883000      -0.04123500       0.01320600       0.04340700
O        7.36987000       8.31865000       9.67742000       0.03863600       0.01010400       0.05838100
O       13.07033000      10.02295000      10.66864000       0.02016900       0.07754500      -0.01556200
O        4.67981000      10.64660000      10.54481000      -0.01309000      -0.05066800      -0.08650600
O       10.81901000      12.25317000       9.37238000       0.36092700      -0.85725800       0.27097100
O       16.35116000      11.26400000      10.54624000       0.02521200       0.12643200      -0.08757400
O        4.14845000       9.00094000       8.60857000      -0.06098500      -0.11686700       0.00332500
O       10.32980000       8.87575000       9.03441000      -0.16221600       0.03894500      -0.01937400
O       16.30142000       9.17702000       8.98012000      -0.04883400       0.00897800       0.06434200
