17
Lattice="18.027634 0.0 0.0 0.0 20.0 0.0 0.0 0.0 20.0" Properties=species:S:1:pos:R:3:forces:R:3 energy=-145.69242411 stress="-12.66799 1.08842 0.11864 1.08842 -4.32383 0.07116 0.11864 0.07116 -0.39244" pbc="T T T"
Zr       2.80090000      10.03681000       9.75668000      -0.02291300      -0.05901500      -0.02415800
Zr       9.01315000       7.58662000       9.03319000      -0.03811100       0.92724500       0.00873800
Zr      14.70337000      10.37592000       9.63988000       0.00519600       0.07206600      -0.01506500
Zr      -0.26136000      10.17084000       9.79988000      -0.01411500       0.01158100       0.00367000
Zr       5.78570000       9.56032000       9.34068000      -0.04137600      -0.08560600      -0.03842000
Zr      11.67555000      10.66298000       9.21471000      -0.01114500       0.01092800      -0.03890700
O        1.38063000      11.02469000       8.86213000      -0.00996400      -0.07827300      -0.06054500
O       13.49030000      10.98495000       8.25520000      -0.00238800      -0.03011700      -0.04875100
O        1.33557000       9.22071000      10.74447000      -0.02373100       0.02361300       0.03972300
O        7.35723000       8.32575000       9.66995000       0.04133000      -0.00859000       0.05778500
O       13.07352000      10.04963000      10.65537000       0.00375300       0.07211900      -0.02448200
O        4.67534000      10.62823000      10.50318000      -0.01232000      -0.01775500      -0.09183100
O       10.84043000      12.25853000       9.35524000       0.34666200      -0.85048700       0.24235300
O       16.35322000      11.30713000      10.50939000       0.02301800       0.09740900      -0.07171700
O        4.12277000       8.95855000       8.59419000      -0.04333100      -0.12082400       0.01101800
O       10.31793000       8.89679000       8.99030000      -0.16284800       0.02731400      -0.00247800
O       16.28992000       9.17304000       9.00364000      -0.03771900       0.00839100       0.05306600
