17
Lattice="18.027634 0.0 0.0 0.0 20.0 0.0 0.0 0.0 20.0" Properties=species:S:1:pos:R:3:forces:R:3 energy=-145.72529989 stress="-12.43692 1.02325 0.16585 1.02325 -4.17996 0.03702 0.16585 0.03702 -0.43995" pbc="T T T"
Zr       2.79505000      10.02263000       9.75154000      -0.01928400      -0.05522600      -0.02870000
Zr       8.99983000       7.60319000       8.99526000      -0.02926400       0.94361500       0.01538000
Zr      14.70564000      10.38841000       9.63247000      -0.04085400       0.06684900      -0.01954200
Zr      -0.26393000      10.17117000       9.80107000      -0.00232900       0.01266000       0.00309600
Zr       5.77686000       9.55125000       9.31605000      -0.02411200      -0.08342400      -0.03376000
Zr      11.67908000      10.66326000       9.19852000      -0.00937500       0.01359400      -0.02943600
O        1.37817000      11.01083000       8.85377000      -0.00831000      -0.07509100      -0.06261900
O       13.49751000      10.98129000       8.23733000      -0.01639400      -0.01809200      -0.02853200
O        1.32940000       9.21983000      10.75022000      -0.02130600       0.02827500       0.03495000
O        7.34700000       8.32454000       9.66390000       0.05865900      -0.01865300       0.05431400
O       13.07238000      10.06625000      10.64595000       0.01731200       0.06078700      -0.03207800
O        4.67248000      10.62093000      10.48201000      -0.00967900      -0.01414300      -0.09564800
O       10.84306000      12.25629000       9.34743000       0.34102900      -0.81276900       0.22208400
O       16.35665000      11.32163000      10.49801000       0.02276600       0.08770800      -0.06788000
O        4.10947000       8.93983000       8.58569000      -0.03546800      -0.12707000       0.01739100
O       10.31175000       8.90825000       8.97184000      -0.18950900      -0.00984100      -0.00498900
O       16.28540000       9.17450000       9.00853000      -0.03388400       0.00082100       0.05596600
