17
Lattice="18.027634 0.0 0.0 0.0 20.0 0.0 0.0 0.0 20.0" Properties=species:S:1:pos:R:3:forces:R:3 energy=-145.72571787 stress="-12.54742 0.99517 0.17101 0.99517 -4.268 0.01395 0.17101 0.01395 -0.44158" pbc="T T T"
Zr       2.79416000      10.01911000       9.75007000      -0.02253800      -0.05534500      -0.03042600
Zr       8.99730000       7.60389000       8.98704000      -0.01823100       0.98523500       0.02516300
Zr      14.70489000      10.39031000       9.63045000      -0.01582600       0.06221300      -0.01833900
Zr      -0.26430000      10.17146000       9.80114000      -0.01596200       0.01128000       0.00049700
Zr       5.77586000       9.54926000       9.31054000      -0.03426900      -0.08841400      -0.03613600
Zr      11.67819000      10.66632000       9.19588000      -0.00752000       0.00188200      -0.03356100
O        1.37804000      11.00679000       8.85092000      -0.00465200      -0.07474500      -0.06260800
O       13.49743000      10.98040000       8.23410000      -0.02958600      -0.01020700      -0.03280100
O        1.32795000       9.22052000      10.75189000      -0.01664000       0.02942100       0.03450600
O        7.34558000       8.32412000       9.66253000       0.07250700      -0.02882000       0.04683200
O       13.07205000      10.06936000      10.64370000       0.00181200       0.06415800      -0.02828000
O        4.67204000      10.62008000      10.47614000      -0.00458300      -0.01311100      -0.09547200
O       10.84344000      12.26037000       9.34284000       0.34561000      -0.81970000       0.22259900
O       16.35684000      11.32503000      10.49409000       0.01937600       0.08752800      -0.06787500
O        4.10719000       8.93434000       8.58448000      -0.02577400      -0.12569300       0.02168700
O       10.31022000       8.90962000       8.96682000      -0.20757100      -0.02792500      -0.00255000
O       16.28459000       9.17374000       9.01067000      -0.03615200       0.00224300       0.05676500
