17
Lattice="18.027634 0.0 0.0 0.0 20.0 0.0 0.0 0.0 20.0" Properties=species:S:1:pos:R:3:forces:R:3 energy=-145.71353431 stress="-13.03531 1.16431 0.19366 1.16431 -4.89239 -0.04983 0.19366 -0.04983 -0.47916" pbc="T T T"
Zr       2.79178000      10.00852000       9.74548000      -0.01591300      -0.05095100      -0.03142900
Zr       8.99206000       7.60289000       8.96352000      -0.04501500       1.05638800       0.05628600
Zr      14.70244000      10.39482000       9.62400000       0.03356900       0.05946200      -0.01251000
Zr      -0.26569000      10.17192000       9.80101000      -0.03485900       0.01379900      -0.00162000
Zr       5.77259000       9.54308000       9.29359000      -0.01094200      -0.10968600      -0.02239000
Zr      11.67499000      10.67638000       9.18771000      -0.11113400       0.16433000      -0.03012500
O        1.37805000      10.99489000       8.84252000      -0.00485300      -0.07379600      -0.06494600
O       13.49546000      10.97872000       8.22485000      -0.06005600      -0.00297500      -0.03717100
O        1.32407000       9.22253000      10.75666000      -0.01223100       0.03041400       0.03121000
O        7.34260000       8.32084000       9.65566000       0.09600300      -0.04377100       0.01572600
O       13.06941000      10.07944000      10.63687000      -0.03305400       0.07742100      -0.02389200
O        4.67143000      10.61797000      10.45834000      -0.00423900      -0.01285600      -0.09786700
O       10.84197000      12.28060000       9.32446000       0.46429600      -1.05706800       0.21092600
O       16.35625000      11.33432000      10.48244000       0.00233600       0.07628900      -0.07505800
O        4.10177000       8.91831000       8.58089000      -0.02472000      -0.12834200       0.02331700
O       10.30436000       8.91042000       8.95137000      -0.19171300      -0.00603800       0.00674500
O       16.28225000       9.17110000       9.01642000      -0.04747700       0.00737900       0.05279700
