17
Lattice="18.027634 0.0 0.0 0.0 20.0 0.0 0.0 0.0 20.0" Properties=species:S:1:pos:R:3:forces:R:3 energy=-145.68863517 stress="-13.73752 1.01653 0.19473 1.01653 -5.31611 -0.05023 0.19473 -0.05023 -0.55291" pbc="T T T"
Zr       2.79094000      10.00246000       9.74281000      -0.01777900      -0.04801800      -0.03331300
Zr       8.98971000       7.59360000       8.95054000       0.03916300       1.26876200       0.09424500
Zr      14.70200000      10.39622000       9.62012000      -0.08222300       0.06151000      -0.02125200
Zr      -0.26698000      10.17203000       9.80063000      -0.01596400       0.00963000      -0.00410900
Zr       5.77216000       9.53957000       9.28370000      -0.02879500      -0.11598200      -0.01474100
Zr      11.66888000      10.68988000       9.18330000      -0.04393500       0.07506300      -0.04466700
O        1.37812000      10.98804000       8.83785000      -0.01263500      -0.07553700      -0.06453900
O       13.49228000      10.97825000       8.21981000      -0.06144700       0.00293100      -0.01664700
O        1.32201000       9.22357000      10.75901000      -0.01390000       0.03453900       0.02670100
O        7.34157000       8.31752000       9.64807000       0.14230300      -0.08408300      -0.01758800
O       13.06596000      10.08581000      10.63286000      -0.02189700       0.10523700      -0.04295100
O        4.67123000      10.61685000      10.44792000       0.00688800      -0.01678000      -0.09880500
O       10.84002000      12.29726000       9.30786000       0.46361400      -1.06358100       0.22068400
O       16.35464000      11.33824000      10.47544000       0.00594700       0.07857200      -0.06912700
O        4.09951000       8.90983000       8.57850000      -0.01345900      -0.12733700       0.02663200
O       10.30284000       8.90951000       8.94149000      -0.30243200      -0.10827800       0.01109000
O       16.28089000       9.16946000       9.01889000      -0.04345000       0.00335300       0.04838500
