17
Lattice="18.027634 0.0 0.0 0.0 20.0 0.0 0.0 0.0 20.0" Properties=species:S:1:pos:R:3:forces:R:3 energy=-141.30299764 stress="-32.52173 7.57261 0.0903 7.57261 -25.95197 0.55765 0.0903 0.55765 -1.40061" pbc="T T T"
Zr       2.83733000       9.96689000       9.73944000       0.08169900       0.00477000      -0.07778900
Zr       9.06455000       7.09692000       8.98649000       0.30314800       5.92698400       0.54409900
Zr      14.69039000      10.31055000       9.59371000      -0.29145400       0.17453100      -0.00054400
Zr      -0.23377000      10.15272000       9.78610000      -0.12091000      -0.03259700      -0.02772400
Zr       5.85072000       9.59655000       9.25332000       0.06159400      -0.69830700       0.15510100
Zr      11.58230000      11.04850000       9.21305000      -0.61912100       2.21555300      -0.50649000
O        1.41431000      10.95303000       8.83206000      -0.09944700      -0.03962300      -0.05071600
O       13.37653000      11.02927000       8.27698000      -0.64940300       0.63597400      -0.09383800
O        1.32686000       9.20669000      10.75372000      -0.03315400       0.04158800      -0.02669500
O        7.34251000       8.24703000       9.54052000       1.09301600      -1.00461400      -0.72690600
O       13.03682000      10.06515000      10.60215000      -0.55091600       0.81572400      -0.20229500
O        4.67236000      10.64296000      10.42873000       0.17068100      -0.19838800      -0.08412900
O       10.51768000      12.96276000       9.04246000       3.09295100      -5.56660500       0.77430600
O       16.30787000      11.27072000      10.44991000      -0.23826500       0.01407000      -0.08682600
O        4.17536000       8.94598000       8.55322000       0.08369400      -0.15015200       0.01590600
O       10.34644000       8.60281000       8.85695000      -2.02106800      -2.16393900       0.33622300
O       16.32449000       9.13721000       8.98119000      -0.26304500       0.02503200       0.05831700
