17
Lattice="18.027634 0.0 0.0 0.0 20.0 0.0 0.0 0.0 20.0" Properties=species:S:1:pos:R:3:forces:R:3 energy=-135.80733994 stress="-23.9828 3.12742 0.47077 3.12742 -17.07436 -0.37982 0.47077 -0.37982 -0.88226" pbc="T T T"
Zr       2.96166000      10.01132000       9.78111000       0.05415500       0.00734800      -0.06432000
Zr       9.16398000       6.89957000       9.28261000       0.26317300       4.72351200       0.12756400
Zr      14.85536000      10.18569000       9.63640000       0.18510900       0.23441100      -0.15482900
Zr      -0.10033000      10.14018000       9.77982000       0.05804300      -0.03044600       0.00552800
Zr       5.99151000       9.78661000       9.43710000       0.13520200      -0.59462000       0.08666900
Zr      11.82452000      10.64874000       9.54190000       0.04545500      -1.09702900      -0.34732000
O        1.47934000      11.00780000       8.88547000      -0.08319800      -0.02350200      -0.00309700
O       13.35928000      11.03884000       8.49403000       0.06211900       0.25366200      -0.05484800
O        1.37610000       9.18149000      10.72475000       0.00184900       0.00211300      -0.03869300
O        7.23918000       8.37996000       9.86061000       0.94912000      -0.75546900      -0.56794000
O       13.15442000       9.77618000      10.66762000      -0.57730300       0.23896000       0.07469300
O        4.64741000      10.72887000      10.60395000       0.14232900      -0.22892700       0.02459000
O        9.78387000      13.74022000       9.24716000       0.64071700      -1.38227400       0.19637000
O       16.32717000      11.14631000      10.53136000      -0.07170900       0.05251800      -0.02861300
O        4.34355000       9.11601000       8.61857000      -0.01144500      -0.12737600      -0.05042900
O       10.46424000       8.27699000       9.02353000      -1.56619500      -1.31780500       0.76090600
O       16.42206000       9.14171000       8.90752000      -0.22742200       0.04492200       0.03376800
