72
Lattice="30.0 0.0 0.0 0.0 30.0 0.0 0.0 0.0 30.0" Properties=species:S:1:pos:R:3:forces:R:3 energy=-651.42228519 stress="-10.86252 -1.56743 1.73803 -1.56743 -17.24152 1.9641 1.73803 1.9641 -2.8729" pbc="T T T"
Zr      15.62705000      16.99993000      17.09675000       0.30277400       0.07364500      -0.09244000
Zr      11.42238000      17.41669000      13.21108000      -0.04713800       0.07573400       0.22840500
Zr      15.19050000      12.32684000      16.76547000       0.07240200       0.07280100       0.13467500
Zr      11.25462000      12.42370000      13.45841000      -0.03557500       0.03511600       0.03661800
Zr      19.33455000      17.30284000      13.34072000       0.09534500      -0.16626800       0.14394600
Zr      19.11054000      12.13810000      13.34031000       0.03481400      -0.17892500       0.02029500
Zr      11.20608000      17.53024000      17.03174000      -0.04990000      -0.15318200       0.06182200
Zr      10.58485000      12.76146000      16.65312000       0.15869300       0.31426600      -0.10364500
Zr      18.83241000      17.60098000      16.58311000      -0.35057200       0.14501400       0.27043700
Zr      14.89422000      17.54184000      13.09469000      -0.19962300       0.25337000       0.37408200
Zr      18.72564000      12.50789000      16.52048000       0.26781200      -0.45390300      -0.12579900
Zr      14.64260000      12.53258000      12.41552000       1.00901100      -0.42303300      -0.44535300
Zr      12.71725000      14.50684000      18.19589000      -0.40892400       0.12335600       0.33204000
Zr       9.11074000      15.25456000      15.34469000       0.32481000       0.38342400       0.02299300
Zr      16.48959000      19.72115000      15.24189000      -0.37891500       0.01168600       0.02650400
Zr      16.61319000      14.61134000      14.88780000       0.27916600       0.03777400      -0.27102800
Zr      12.22985000      14.76781000      11.69660000       0.13992800      -0.03972900       0.03037700
Zr      16.55017000      10.19103000      14.59109000       0.62506100      -0.00477500      -0.36713200
Zr      13.35807000      19.87302000      15.33046000       0.24816000       0.19572700      -0.08805800
Zr      17.90770000      15.03076000      18.21530000       0.13375500      -0.04263900      -0.09920400
Zr      13.37432000      15.32997000      15.07401000      -0.09900500      -0.21931000      -0.19675600
Zr      13.46617000      10.29906000      14.86689000      -0.05654400       0.02055200      -0.45057500
Zr      20.94585000      14.86513000      14.63006000      -0.20813300      -0.19964500       0.00290700
Zr      17.44539000      15.23712000      11.86746000       0.49093600      -0.59502100       0.04063400
O       13.90704000      15.97511000      17.02412000      -0.10757000      -0.09303400      -0.02141400
O        9.85040000      16.26245000      13.72944000      -0.13336400       0.18580300       0.10934000
O       13.87951000      10.79254000      16.69153000      -0.04031100       0.27277600       0.17175700
O       18.05334000      15.75234000      13.78440000      -0.01917900       0.00848100      -0.25527900
O       18.05016000      10.37163000      13.34592000      -0.22650600       0.08769700       0.11293100
O       11.90574000      19.43490000      16.60590000      -0.10332400      -0.05785200       0.34296900
O       11.96294000      14.26379000      16.30454000      -0.03136600      -0.05708800      -0.03915700
O       15.94583000      19.20561000      13.44633000       0.02768300      -0.17375600       0.15476900
O       19.89907000      14.18027000      16.18075000      -0.21727100       0.06906500      -0.07387400
O       15.94917000      14.16308000      12.99053000      -0.08943800       0.02170700       0.09956300
O       14.31118000      13.32101000      18.25041000       0.13565600      -0.00966800       0.12527900
O        9.98140000      13.53639000      14.60529000       0.10139100       0.03856600      -0.02417100
O       18.49965000      18.85432000      14.71330000      -0.09625300      -0.14107400       0.08422300
O       17.90294000      13.05898000      14.60619000      -0.27453500      -0.15355800      -0.09969900
O       13.77866000      13.87090000      11.02744000      -0.25604700       0.04393000       0.00362700
O       16.22850000      16.15100000      18.75471000       0.19842400      -0.20226400      -0.16970500
O       11.94035000      16.88399000      15.30595000       0.01782900       0.00856400       0.04575000
O       11.34604000      11.27745000      15.34715000      -0.04477800       0.12188800      -0.13863400
O       20.06194000      16.73182000      15.38069000       0.08009400       0.10451000      -0.07639400
O       15.80099000      16.67876000      11.73632000       0.22026400      -0.35236100      -0.51302800
O       19.76289000      11.42274000      15.28269000      -0.11494000       0.11141800       0.06027400
O       15.77179000      11.38753000      11.57260000      -0.79590200       0.54905600       0.50565200
O       11.36511000      13.04422000      18.45172000      -0.04856100      -0.03010800      -0.06954900
O       14.71464000      18.58358000      15.85391000       0.07513000      -0.10269700       0.22790600
O       18.65647000      13.24268000      18.51959000       0.17672600       0.13514100       0.10470000
O       14.70541000      13.84328000      15.46290000      -0.05666700      -0.01564700      -0.01778600
O       10.86363000      13.31280000      11.72840000       0.04738700       0.03668600      -0.15819200
O       14.91908000       8.95850000      14.55328000      -0.07610300       0.32891700       0.18414700
O       18.45517000      13.51734000      11.89997000      -0.11007700       0.31779200      -0.07016200
O       11.76691000      16.37234000      18.49369000       0.00777200      -0.05449900       0.07152200
O       14.99446000      21.11266000      15.43178000       0.11105400      -0.41010500      -0.14788500
O       19.17608000      16.60086000      18.24974000       0.06686400       0.09598200       0.01319800
O       15.30719000      16.36082000      14.74339000      -0.15986200      -0.04114700       0.09755300
O       11.48484000      16.72393000      11.41945000      -0.12791900      -0.19921700      -0.38835300
O       15.09136000      11.57716000      14.47584000      -0.17738700       0.15985900      -0.01333300
O       18.63301000      16.85306000      11.55995000       0.07611400       0.07996500      -0.03434100
O        9.39852000      16.86046000      16.49769000       0.16623100      -0.12781100       0.01628100
O       17.38819000      16.11870000      16.34306000       0.03511800       0.24199600       0.21626200
O       13.16599000      16.29049000      13.17734000      -0.04025200      -0.22057600      -0.27886400
O       16.92399000      11.03460000      16.40611000      -0.09066400       0.00252000       0.12575900
O       12.89512000      11.24099000      13.05863000       0.00544700      -0.08499400       0.16400500
O       21.03360000      16.27105000      13.16834000      -0.29283400       0.13415300      -0.02979200
O        8.93952000      13.91074000      16.82613000      -0.02383300      -0.07140400       0.11177700
O       17.02242000      18.68087000      16.98255000      -0.11963300       0.08926900      -0.01663400
O       12.84605000      19.01847000      13.56964000      -0.15914900      -0.10909100      -0.17202000
O       16.86390000      13.72612000      16.79761000       0.03671400       0.05603700       0.26640400
O       12.58237000      13.91848000      13.63212000      -0.04604800      -0.06449200      -0.21946300
O       20.82050000      13.30934000      13.53158000       0.14553500       0.20462800       0.12633400
