72
Lattice="30.0 0.0 0.0 0.0 30.0 0.0 0.0 0.0 30.0" Properties=species:S:1:pos:R:3:forces:R:3 energy=-652.45936696 stress="-10.29024 0.33749 -0.80648 0.33749 -8.10287 -3.29124 -0.80648 -3.29124 -10.16486" pbc="T T T"
Zr      15.62907000      16.87579000      17.09732000       0.07098500       0.14887900       0.00294700
Zr      11.41692000      17.37551000      13.12610000      -0.12547400      -0.03251700       0.07594200
Zr      15.19672000      12.46461000      16.92889000      -0.13871800      -0.28726600       0.01439800
Zr      11.19701000      12.40414000      13.39226000      -0.21117500       0.11558300       0.15821100
Zr      19.29514000      17.33234000      13.40496000      -0.07489700       0.49468900      -0.18465900
Zr      19.13448000      12.09287000      13.35643000       0.37288000       0.17902800      -0.08462700
Zr      11.42477000      17.46240000      17.11689000       0.24465200      -0.07003800      -0.14693600
Zr      10.55797000      12.79446000      16.60046000      -0.11730700       0.11363000      -0.26808800
Zr      18.80242000      17.73159000      16.66076000      -0.14200200       0.07517700      -0.12250500
Zr      14.91854000      17.32689000      12.97067000      -0.16389300       0.00130300       0.18885300
Zr      18.66568000      12.38388000      16.59244000       0.03369100      -0.21697400      -0.06927500
Zr      14.69539000      12.60093000      12.38325000       0.00878200      -0.46289400      -0.37662900
Zr      12.64365000      14.50460000      18.28905000       0.02316800      -0.03201100      -0.02834800
Zr       9.35282000      15.42186000      15.40184000       0.35129000      -0.10320600      -0.04251300
Zr      16.39085000      19.59916000      15.29646000      -0.33626200      -0.02184300      -0.06780500
Zr      16.72327000      14.58039000      14.87682000      -0.24864400       0.11723500       0.00172200
Zr      12.19753000      14.69875000      11.58738000      -0.09057700       0.09846000       0.15743500
Zr      16.61994000      10.41783000      14.54344000      -0.24869700       0.02130400       0.25584100
Zr      13.29618000      19.75455000      15.33880000       0.01309100      -0.07488100       0.03856400
Zr      18.13468000      15.03610000      18.11598000      -0.05552300      -0.06413900      -0.20019300
Zr      13.34821000      15.25463000      15.04089000      -0.03612400       0.00251500      -0.19053600
Zr      13.51551000      10.46015000      14.81894000       0.02459600       0.02809500       0.04382300
Zr      20.77117000      14.90413000      14.65228000      -0.06110000      -0.01008200       0.03474900
Zr      17.56778000      15.18845000      11.82086000       0.14479400       0.03842000      -0.06374500
O       13.81450000      15.95977000      17.03901000      -0.05958300       0.27947700       0.07146200
O        9.70698000      16.52169000      13.72617000      -0.14471400       0.09877500       0.12841800
O       13.77227000      11.09282000      16.65834000      -0.02505600       0.02534900      -0.02419400
O       18.13597000      15.69065000      13.76596000       0.03253000      -0.32234900       0.12864100
O       18.08779000      10.37731000      13.23964000       0.20946200      -0.01370900      -0.01139800
O       11.94105000      19.40232000      16.76596000       0.08500900      -0.08915400      -0.08250100
O       11.92815000      14.32682000      16.34254000      -0.18384200      -0.03936600      -0.06587800
O       15.88879000      18.95305000      13.51957000       0.05598300       0.09218900      -0.00196100
O       19.57012000      14.23344000      16.12510000      -0.23183900       0.28030400       0.05698100
O       16.03531000      14.20792000      12.97120000      -0.09340100      -0.18251500       0.10431100
O       14.33553000      13.42180000      18.41507000       0.05524000      -0.00963000       0.06321300
O       10.08818000      13.67935000      14.55086000      -0.01752400       0.14417700       0.06713300
O       18.40270000      18.87914000      14.79886000      -0.02187800       0.08758700      -0.06701000
O       17.70912000      12.79069000      14.57399000      -0.06684400      -0.13842200      -0.07525100
O       13.76659000      13.84225000      10.95007000       0.20681300      -0.06575700      -0.04179900
O       16.36312000      15.97279000      18.66491000       0.15034800      -0.02765200       0.11034000
O       11.95614000      16.84928000      15.24021000      -0.24539200      -0.13068800       0.01935800
O       11.24010000      11.31982000      15.24370000       0.05885200      -0.05788600       0.13750100
O       20.04589000      16.85658000      15.42961000       0.13223100       0.06607300       0.01884200
O       15.85517000      16.50200000      11.58288000       0.27146100       0.00336100      -0.19405100
O       19.76344000      11.41992000      15.30346000      -0.03692100       0.08744100       0.03394400
O       15.65646000      11.32558000      11.54845000      -0.14677600       0.43666800       0.35891000
O       11.33130000      13.00837000      18.41261000      -0.03392200      -0.08084100       0.14220600
O       14.61942000      18.49573000      16.01876000       0.12050200       0.11928900      -0.15961300
O       18.84409000      13.23048000      18.51206000      -0.02411100      -0.00784700      -0.12136500
O       14.75560000      13.87177000      15.53092000       0.08604900       0.28932300       0.03437200
O       10.85128000      13.23351000      11.61132000      -0.00550500       0.11910400       0.01425200
O       15.01159000       9.16481000      14.60779000       0.12174600       0.13696900       0.08660500
O       18.53199000      13.47206000      11.87277000       0.06297300      -0.02456900       0.11378100
O       11.79551000      16.32247000      18.67604000       0.03515800      -0.11680000       0.34547500
O       14.90723000      20.97642000      15.35242000       0.09940200       0.00188300      -0.08740500
O       19.25664000      16.73115000      18.28676000      -0.01297500      -0.26487400      -0.02498800
O       15.26710000      16.31508000      14.74565000       0.22290700      -0.32605300      -0.04300400
O       11.40847000      16.61895000      11.31567000       0.07367300      -0.05469800       0.24258600
O       15.11094000      11.73341000      14.41310000      -0.17441300      -0.12277300      -0.11025500
O       18.69476000      16.87492000      11.58255000      -0.24089000      -0.05734100       0.05042900
O        9.58890000      16.93069000      16.67412000       0.04065800      -0.06519500       0.02979300
O       17.44861000      16.19752000      16.29544000       0.02927500      -0.12371000      -0.05184700
O       13.15595000      16.18179000      13.07718000      -0.06405500       0.14912100      -0.11071300
O       16.91353000      11.06809000      16.51206000      -0.11648200       0.01777000      -0.03964500
O       12.88024000      11.29552000      13.04514000       0.30224300      -0.18537900      -0.12059600
O       20.92206000      16.26504000      13.17812000       0.27045300       0.00403300       0.09254700
O        8.94625000      13.96779000      16.78431000       0.08274800       0.02653700      -0.24531800
O       16.92378000      18.66492000      17.08266000       0.07676200      -0.10755200      -0.03060400
O       12.74694000      18.95404000      13.54383000      -0.08000600       0.07862500      -0.04190500
O       16.93939000      13.75822000      16.82604000      -0.01313000      -0.04592300       0.08281500
O       12.57143000      13.86707000      13.56432000       0.21757000       0.17509400      -0.04727800
O       20.85471000      13.34024000      13.58377000      -0.29832900      -0.11693700       0.13803600
