72
Lattice="30.0 0.0 0.0 0.0 30.0 0.0 0.0 0.0 30.0" Properties=species:S:1:pos:R:3:forces:R:3 energy=-652.72193271 stress="-10.79052 1.33451 -2.15864 1.33451 -6.25101 -2.52003 -2.15864 -2.52003 -12.06272" pbc="T T T"
Zr      15.65279000      16.84907000      17.12074000      -0.02187300      -0.16301300       0.26244400
Zr      11.38844000      17.36541000      13.11978000      -0.21210100       0.06414900      -0.00181400
Zr      15.18712000      12.49180000      16.98997000       0.15482700       0.01564900      -0.12580700
Zr      11.17458000      12.41824000      13.38230000       0.31197400      -0.07874300       0.00375300
Zr      19.25967000      17.37388000      13.40862000       0.32351900      -0.16112800       0.13883700
Zr      19.15955000      12.09449000      13.35622000      -0.16469300      -0.24082700      -0.12644900
Zr      11.53709000      17.41115000      17.14018000       0.01551700      -0.17936200       0.33794900
Zr      10.55296000      12.80056000      16.56773000      -0.10984800       0.09377400       0.38402700
Zr      18.77675000      17.76601000      16.66941000       0.30940500      -0.25710700       0.12548100
Zr      14.92600000      17.24517000      12.94757000       0.52957600      -0.10736500      -0.39132100
Zr      18.64813000      12.32867000      16.60121000      -0.24449000       0.32865100       0.18206500
Zr      14.67914000      12.60128000      12.35046000      -0.10485500      -0.04997400       0.01206700
Zr      12.62610000      14.49296000      18.30662000      -0.03303800      -0.07351700       0.21568500
Zr       9.47550000      15.47555000      15.41860000       0.22253800       0.22484500       0.06244700
Zr      16.32649000      19.56254000      15.30763000       0.27845300       0.01557800      -0.05231400
Zr      16.73285000      14.56645000      14.87115000       0.08874900      -0.33448300       0.26023300
Zr      12.18215000      14.68182000      11.54631000       0.36871200       0.02594200       0.05463600
Zr      16.63435000      10.51619000      14.54763000       0.34926200      -0.33861200      -0.34368900
Zr      13.27598000      19.70492000      15.33514000      -0.12807300       0.15123200      -0.14129100
Zr      18.21311000      15.01945000      18.04396000      -0.06897300      -0.11381300      -0.03408400
Zr      13.34647000      15.24981000      15.01850000       0.11051600      -0.25888300       0.06372100
Zr      13.53909000      10.49926000      14.81900000      -0.09892800      -0.04537700      -0.18317200
Zr      20.69780000      14.93408000      14.66244000      -0.36132900       0.23216800       0.06274600
Zr      17.60864000      15.17615000      11.81189000      -0.06389200      -0.14460600       0.03078500
O       13.76406000      16.00192000      17.06718000      -0.11926600       0.36793500      -0.25470400
O        9.63887000      16.63894000      13.74854000      -0.07279200      -0.06306600       0.13228000
O       13.72355000      11.21000000      16.64556000      -0.13971500      -0.24587600      -0.04099300
O       18.19446000      15.63163000      13.78112000       0.26884300       0.15751700      -0.13708800
O       18.12273000      10.37309000      13.21120000       0.00507700       0.21190900       0.41495300
O       11.97853000      19.37067000      16.80172000       0.02382400      -0.21125900      -0.07786900
O       11.89567000      14.35480000      16.35542000      -0.02782500       0.16690900      -0.30516200
O       15.87821000      18.86960000      13.54520000      -0.18674400      -0.00863000      -0.27561100
O       19.41687000      14.29403000      16.10969000       0.04379900      -0.01972800       0.02981600
O       16.08440000      14.20886000      12.95239000      -0.34791500      -0.21445700       0.17757500
O       14.34747000      13.44663000      18.46899000      -0.08247300       0.06381200       0.14026100
O       10.11896000      13.73040000      14.51774000       0.21073400      -0.14667200      -0.17205200
O       18.35599000      18.90175000      14.79528000       0.07885600      -0.06868800      -0.00491300
O       17.64331000      12.68003000      14.56752000       0.06636200       0.19498600      -0.10342600
O       13.78231000      13.83009000      10.91382000      -0.22852200       0.19264900      -0.01139400
O       16.42267000      15.91997000      18.65254000      -0.00678000       0.17053800      -0.11690300
O       11.92887000      16.80936000      15.20475000      -0.32777000      -0.22328200      -0.05503300
O       11.22277000      11.33018000      15.23853000      -0.00662400       0.03055600      -0.20197200
O       20.06101000      16.91382000      15.46039000      -0.05008600       0.15409500      -0.21448200
O       15.89497000      16.46209000      11.52003000      -0.09330200       0.27900500       0.36534100
O       19.76762000      11.43013000      15.31711000       0.17469400      -0.07399200      -0.01718000
O       15.63978000      11.32180000      11.56312000       0.21047000      -0.02577400      -0.00792400
O       11.31131000      12.99971000      18.41046000      -0.04969600      -0.08354100      -0.14381300
O       14.60686000      18.46862000      16.05366000       0.02507900       0.11259400      -0.34083700
O       18.91221000      13.21892000      18.47352000       0.03375200      -0.15521400      -0.03997400
O       14.77184000      13.90902000      15.55700000      -0.12445400       0.04727800       0.22899400
O       10.83127000      13.23405000      11.57720000       0.06794700      -0.01400300       0.30479500
O       15.05817000       9.22534000      14.64659000      -0.05473000       0.19193600       0.14338300
O       18.56732000      13.46202000      11.87745000       0.13518400      -0.09664000       0.00879500
O       11.80618000      16.29162000      18.76034000       0.00305600      -0.05356100       0.12320700
O       14.87782000      20.94037000      15.29880000      -0.11521500       0.08228200       0.02023700
O       19.28718000      16.74167000      18.28625000      -0.20281700      -0.09308700      -0.43180000
O       15.28608000      16.27082000      14.74749000      -0.09243900      -0.01954000      -0.26738800
O       11.37760000      16.57930000      11.31555000       0.00186400      -0.01829900       0.18621300
O       15.08505000      11.77462000      14.37984000      -0.16552400       0.07078500       0.03285900
O       18.69500000      16.87808000      11.59264000      -0.12044700       0.22039000       0.12447200
O        9.66459000      16.95100000      16.73953000       0.40906000      -0.08830700       0.07986100
O       17.44748000      16.20192000      16.26442000       0.03415100       0.13846500       0.03064900
O       13.15427000      16.17732000      13.04351000      -0.01086300       0.11585200       0.00868500
O       16.88904000      11.07413000      16.55702000      -0.09423000      -0.08682000      -0.00767800
O       12.88266000      11.28722000      13.02727000      -0.11633000       0.02482700       0.02478600
O       20.90388000      16.28071000      13.20193000      -0.00590400       0.26838700       0.03766700
O        8.95804000      13.98326000      16.72599000      -0.01046000       0.11833500      -0.21491200
O       16.90350000      18.64516000      17.10920000      -0.10107500      -0.04226200       0.00279200
O       12.69709000      18.93482000      13.53657000      -0.04509900       0.17654600       0.08652700
O       16.94345000      13.73458000      16.83536000      -0.12827700      -0.00672000      -0.07450300
O       12.59970000      13.87014000      13.53114000      -0.07113600      -0.05393000      -0.01236000
O       20.83536000      13.34191000      13.64452000      -0.04519700      -0.04941900       0.02889200
