72
Lattice="30.0 0.0 0.0 0.0 30.0 0.0 0.0 0.0 30.0" Properties=species:S:1:pos:R:3:forces:R:3 energy=-652.90123354 stress="-9.75769 0.77811 -2.86635 0.77811 -4.12149 -3.43679 -2.86635 -3.43679 -10.90075" pbc="T T T"
Zr      15.65851000      16.83070000      17.14578000      -0.00985000       0.12033700      -0.13359000
Zr      11.36187000      17.36449000      13.11788000      -0.06910400       0.06361500       0.07368800
Zr      15.18828000      12.50224000      17.01193000      -0.33059300      -0.22345700       0.04338700
Zr      11.17817000      12.42337000      13.37914000       0.04258100      -0.11633900       0.02412600
Zr      19.25920000      17.39566000      13.41398000       0.09675300      -0.10009500       0.14827100
Zr      19.17376000      12.08356000      13.34413000      -0.12866500       0.02981400       0.24317400
Zr      11.60049000      17.37680000      17.16634000       0.18413600      -0.06909500       0.28002400
Zr      10.53716000      12.81304000      16.56540000       0.11235200      -0.18686100       0.06579200
Zr      18.77897000      17.77110000      16.68315000      -0.06983900       0.16980500      -0.30944000
Zr      14.95565000      17.20132000      12.92088000      -0.14607200      -0.00277200       0.12363000
Zr      18.62764000      12.31257000      16.61205000      -0.04086400       0.05425200      -0.03233800
Zr      14.65375000      12.60494000      12.33336000       0.46804400      -0.63038400       0.00465800
Zr      12.61572000      14.48481000      18.32777000      -0.11146000      -0.16729500      -0.00315500
Zr       9.55724000      15.51133000      15.43129000       0.37173300       0.34699600      -0.29475300
Zr      16.30060000      19.54545000      15.30739000       0.32441700      -0.09827000      -0.15930100
Zr      16.73712000      14.54087000      14.88204000       0.23286800       0.08447100      -0.00098700
Zr      12.20118000      14.67020000      11.52918000      -0.61815500       0.51300800       0.38073400
Zr      16.66012000      10.54514000      14.53200000      -0.49272000      -0.09670800      -0.00226700
Zr      13.26057000      19.68539000      15.32577000      -0.16111900       0.27394200      -0.20206500
Zr      18.25001000      15.00797000      18.00205000      -0.25658600      -0.15655100       0.17236700
Zr      13.35100000      15.23233000      15.00683000      -0.15819400       0.22106800      -0.16238900
Zr      13.54397000      10.51739000      14.80558000      -0.14007900       0.04076600       0.16660100
Zr      20.63956000      14.95698000      14.66738000      -0.45698000       0.22848500      -0.16547800
Zr      17.62973000      15.15884000      11.80529000      -0.13509800       0.12267300       0.34846700
O       13.73074000      16.04908000      17.06811000      -0.19526600       0.20459700      -0.17308700
O        9.59625000      16.69816000      13.76917000      -0.05853000      -0.14960100       0.16049000
O       13.69026000      11.25808000      16.63778000       0.08781000      -0.13524100      -0.08496600
O       18.24084000      15.60500000      13.78456000       0.17805300       0.03370500      -0.15479400
O       18.14170000      10.38282000      13.22166000       0.15369200      -0.17516300       0.08514400
O       11.99973000      19.33891000      16.81568000      -0.02868200      -0.22427400      -0.01044100
O       11.87528000      14.37887000      16.34347000       0.02787300       0.09602000       0.12523100
O       15.86196000      18.82493000      13.54222000      -0.00834600       0.29379900      -0.13563200
O       19.33424000      14.32824000      16.10567000       0.22144100      -0.21427100       0.01448400
O       16.08924000      14.19470000      12.95689000      -0.24137200      -0.08154400      -0.00488300
O       14.34915000      13.46387000      18.50821000      -0.00321100      -0.00901300      -0.08392200
O       10.14722000      13.75135000      14.49208000       0.16323500      -0.11046400      -0.10487600
O       18.33734000      18.90949000      14.79295000       0.09887900      -0.11129700       0.03698500
O       17.60769000      12.63348000      14.55965000       0.41245200       0.31140700      -0.16336200
O       13.77597000      13.83604000      10.89596000       0.39421900      -0.10594700      -0.31856000
O       16.45775000      15.89947000      18.64315000      -0.02330700       0.09672500      -0.00283200
O       11.89120000      16.77375000      15.18403000      -0.27700300      -0.33986800      -0.01616000
O       11.21451000      11.33614000      15.22637000      -0.05710600       0.08993600      -0.15562000
O       20.06857000      16.95291000      15.46314000       0.01433300       0.04647100      -0.15861600
O       15.91740000      16.45510000      11.50132000       0.33197300      -0.15721400      -0.15819400
O       19.77762000      11.43348000      15.32681000      -0.08150400       0.05879300       0.04403600
O       15.64928000      11.31360000      11.56837000      -0.07564300       0.35541500       0.21577300
O       11.29838000      12.98817000      18.40608000       0.03668400       0.07245600      -0.10873600
O       14.60287000      18.46362000      16.04973000       0.11768400      -0.08386900      -0.30776700
O       18.94995000      13.20288000      18.45055000      -0.01249500      -0.10323700      -0.01544500
O       14.77646000      13.93381000      15.58570000      -0.04129100      -0.23618300       0.36162700
O       10.82448000      13.23535000      11.57734000       0.24148500       0.02453900       0.20420300
O       15.08211000       9.27224000      14.67673000      -0.00477400      -0.11161100       0.02687300
O       18.59330000      13.45249000      11.88186000       0.12378800      -0.13680200      -0.10456600
O       11.81266000      16.26844000      18.81910000       0.07377700      -0.11948400       0.06173300
O       14.85740000      20.92549000      15.27109000      -0.02075800       0.08827500       0.03911200
O       19.28924000      16.73710000      18.25830000       0.06824600      -0.20694700       0.02801000
O       15.29461000      16.24041000      14.73211000      -0.08788300       0.00474800      -0.18505400
O       11.36195000      16.55739000      11.32932000      -0.06319700      -0.01906900      -0.00208100
O       15.06009000      11.79885000      14.36297000       0.20126500       0.06475800       0.08474700
O       18.68483000      16.89228000      11.60691000      -0.16148800       0.05733400       0.03578900
O        9.72926000      16.95624000      16.77957000       0.22507000      -0.07571900       0.21815900
O       17.45182000      16.20946000      16.24873000      -0.09729700       0.09975500       0.09935800
O       13.15120000      16.18360000      13.02416000       0.17767300       0.06458200       0.12953400
O       16.86955000      11.07312000      16.58014000       0.00339000      -0.04404300      -0.09911500
O       12.88258000      11.28045000      13.01926000      -0.10136500       0.07205100      -0.16675200
O       20.89761000      16.30482000      13.21813000       0.14187000       0.16831400      -0.03433500
O        8.96719000      13.99831000      16.67875000      -0.21880900       0.17769900       0.00894700
O       16.88947000      18.62971000      17.12416000      -0.07569800      -0.03732600      -0.01850300
O       12.66635000      18.93591000      13.53687000      -0.16562300       0.17616600       0.09708300
O       16.93887000      13.72218000      16.83702000      -0.11924300      -0.01974100       0.05473000
O       12.61261000      13.87173000      13.51271000       0.16287000      -0.13198600       0.02769000
O       20.81775000      13.34302000      13.68302000       0.05462300       0.06096500      -0.00059200
