72
Lattice="30.0 0.0 0.0 0.0 30.0 0.0 0.0 0.0 30.0" Properties=species:S:1:pos:R:3:forces:R:3 energy=-653.46979078 stress="-8.20702 -1.0949 -3.16001 -1.0949 -1.52926 -2.46347 -3.16001 -2.46347 -7.8412" pbc="T T T"
Zr      15.66165000      16.82997000      17.14839000      -0.15024000       0.15329900      -0.11988900
Zr      11.29853000      17.38358000      13.13156000       0.02280600       0.13063100       0.07318900
Zr      15.14633000      12.49075000      17.07713000      -0.07777600      -0.08268000      -0.18074800
Zr      11.17947000      12.41124000      13.36875000       0.17694100       0.04308100      -0.06824500
Zr      19.28474000      17.46398000      13.40450000       0.02987200       0.13767100      -0.11455500
Zr      19.20576000      12.06148000      13.36542000       0.07323100      -0.08494200       0.09334700
Zr      11.75590000      17.30095000      17.27798000      -0.09310400       0.06586600       0.08192000
Zr      10.49351000      12.84381000      16.53292000       0.17486500      -0.11895800       0.01691300
Zr      18.76364000      17.79113000      16.68056000      -0.14186800      -0.07080100      -0.02186200
Zr      15.01227000      17.12189000      12.86824000       0.10582100       0.04968300      -0.02223700
Zr      18.59005000      12.27176000      16.62673000       0.17459300       0.01968800      -0.20151500
Zr      14.64885000      12.57468000      12.29581000       0.20012100      -0.00209500       0.09348900
Zr      12.57992000      14.43325000      18.35574000       0.00090700      -0.13273200       0.09647900
Zr       9.78617000      15.61899000      15.42852000      -0.42978000      -0.03887600      -0.03176900
Zr      16.27144000      19.51090000      15.26048000       0.03418300       0.04265600      -0.13652000
Zr      16.76693000      14.51637000      14.91737000      -0.09834300       0.06502800       0.03427900
Zr      12.20678000      14.69227000      11.54405000       0.03644400       0.02353500       0.12159400
Zr      16.62923000      10.57635000      14.50366000      -0.10164300      -0.10262100      -0.04376200
Zr      13.22590000      19.70074000      15.30401000       0.05541400       0.10031400      -0.07570000
Zr      18.26679000      14.96824000      17.98900000      -0.16640900       0.02107000       0.04511600
Zr      13.34924000      15.22204000      14.96350000       0.03654100       0.03966300       0.04052000
Zr      13.52504000      10.55675000      14.79854000      -0.11067100      -0.01063200       0.03097900
Zr      20.44124000      15.01974000      14.60846000       0.00658100      -0.23787700      -0.18737300
Zr      17.66455000      15.12280000      11.84266000       0.01631900      -0.08452600       0.05625600
O       13.64356000      16.16969000      17.03164000       0.21198000      -0.13519100      -0.04861100
O        9.51481000      16.80160000      13.81938000       0.03863700      -0.01532000      -0.00022100
O       13.62610000      11.30903000      16.61837000       0.12626800      -0.07060900       0.14526100
O       18.36790000      15.53808000      13.80114000       0.04513900       0.12402300       0.00451200
O       18.19082000      10.34490000      13.27355000      -0.10981700      -0.01368000       0.17206400
O       12.05903000      19.24752000      16.83039000       0.06012900       0.06172400       0.10338800
O       11.84613000      14.42350000      16.38112000       0.14203600      -0.08089100       0.01761100
O       15.82824000      18.80260000      13.48752000       0.02429600       0.12139000      -0.27453700
O       19.22213000      14.32743000      16.10082000       0.19004400      -0.08315000       0.12656600
O       16.08288000      14.18018000      12.97676000       0.12357400       0.11998300       0.01116500
O       14.34471000      13.48428000      18.56489000      -0.00675300      -0.15632700       0.03931600
O       10.23542000      13.78869000      14.43844000       0.07333100       0.01975100       0.04650700
O       18.31257000      18.90954000      14.80287000      -0.01463400       0.05237400      -0.02466400
O       17.63310000      12.64779000      14.53065000       0.13221500       0.06339500       0.07861500
O       13.78769000      13.84722000      10.84932000       0.01100800       0.00287200       0.13282500
O       16.48577000      15.89182000      18.62639000      -0.21314200       0.10700800      -0.00836900
O       11.75292000      16.61584000      15.12054000       0.14904800       0.01386200       0.03674500
O       11.19157000      11.34625000      15.18885000      -0.02410800      -0.05354100      -0.06515600
O       20.07500000      17.04076000      15.45412000      -0.04035400      -0.12737300      -0.04154000
O       16.01228000      16.40047000      11.44507000      -0.16859400      -0.07520300      -0.02855200
O       19.77818000      11.44732000      15.35634000      -0.01890600      -0.06599900       0.01702700
O       15.71307000      11.30236000      11.60222000       0.08642700       0.03169700       0.17791900
O       11.26872000      12.96471000      18.38605000      -0.16972600      -0.11311600      -0.00796500
O       14.60463000      18.43612000      15.94283000      -0.04163600      -0.07537500      -0.27321800
O       19.00658000      13.15896000      18.41454000      -0.21267200       0.09958800       0.25033400
O       14.74928000      13.96258000      15.70793000      -0.01219200      -0.03442800       0.04970400
O       10.85399000      13.25279000      11.58633000       0.10322500       0.08146800      -0.09219500
O       15.07374000       9.31327000      14.73291000      -0.19943100      -0.11146300      -0.16198200
O       18.65051000      13.42420000      11.86214000      -0.00088600      -0.10334000      -0.02604500
O       11.85932000      16.18845000      18.96220000       0.17228800       0.05502200      -0.06465200
O       14.83869000      20.90933000      15.22610000       0.13323500       0.13153900       0.07758300
O       19.31348000      16.68922000      18.20254000       0.00952200      -0.09949400       0.09746400
O       15.29934000      16.17885000      14.67369000       0.04341400       0.06809300       0.05318100
O       11.29374000      16.53607000      11.36618000      -0.03553500      -0.01566300      -0.05340300
O       15.04369000      11.85355000      14.35727000       0.00223300      -0.05083900       0.02198700
O       18.63086000      16.92382000      11.65160000       0.03568100       0.00164600       0.05045200
O        9.89584000      16.93623000      16.92010000      -0.18656000      -0.13056900       0.11548200
O       17.42328000      16.23596000      16.21831000       0.02402300      -0.11519800       0.01771100
O       13.16959000      16.22938000      13.01387000      -0.02104000       0.10284000      -0.05693100
O       16.82763000      11.06277000      16.57489000       0.02142800      -0.03199700      -0.20942900
O       12.88605000      11.26433000      12.97442000       0.02642500       0.03748100      -0.03934100
O       20.92089000      16.40652000      13.21676000      -0.03757500       0.15467700      -0.10848800
O        8.98592000      14.06524000      16.57929000      -0.02315500       0.14634500       0.08844100
O       16.84344000      18.60504000      17.13719000      -0.04658100       0.09922900      -0.13150400
O       12.53353000      18.98146000      13.56085000      -0.26881900       0.19883400       0.18057100
O       16.90770000      13.69133000      16.86152000       0.00504800      -0.01380100       0.17056600
O       12.69484000      13.84761000      13.49948000       0.03757100      -0.09799600      -0.01146700
O       20.80375000      13.36277000      13.75079000       0.04908200       0.05028100      -0.13463000
