72
Lattice="30.0 0.0 0.0 0.0 30.0 0.0 0.0 0.0 30.0" Properties=species:S:1:pos:R:3:forces:R:3 energy=-653.74036452 stress="-7.8088 -1.5538 -0.9862 -1.5538 -7.68942 -2.88507 -0.9862 -2.88507 -11.57042" pbc="T T T"
Zr      15.63312000      16.86317000      17.11882000      -0.03883100       0.08462100      -0.05990000
Zr      11.27853000      17.41203000      13.14723000      -0.09210400      -0.08906500      -0.05113600
Zr      15.13316000      12.47526000      17.07157000      -0.04287400      -0.21823900      -0.02552800
Zr      11.21149000      12.42177000      13.34307000       0.03211800      -0.13181400       0.03734400
Zr      19.31539000      17.53280000      13.37512000      -0.11459900      -0.09009300       0.05322500
Zr      19.23130000      12.02982000      13.39526000      -0.07332400      -0.12800700      -0.13160200
Zr      11.77755000      17.28732000      17.33404000      -0.09320200      -0.04872600      -0.28868600
Zr      10.49763000      12.85128000      16.50704000       0.15054400      -0.08795900       0.02891900
Zr      18.73791000      17.76067000      16.67779000      -0.00158500       0.00301200       0.00539100
Zr      15.05328000      17.10724000      12.84257000       0.09544700       0.02334300      -0.01148300
Zr      18.60411000      12.28246000      16.61772000       0.16066200      -0.17289100      -0.14139600
Zr      14.68350000      12.58926000      12.30670000       0.47108400      -0.53161300      -0.02861000
Zr      12.56943000      14.37613000      18.38437000      -0.11879800      -0.15540500       0.03862900
Zr       9.76410000      15.63883000      15.43438000      -0.05880200       0.21426200      -0.04369700
Zr      16.26915000      19.51198000      15.19573000       0.05501800       0.03547400      -0.14102500
Zr      16.75820000      14.52698000      14.95900000       0.12498200      -0.19481600      -0.10779500
Zr      12.23230000      14.71347000      11.57258000      -0.14385900       0.42809000      -0.12316600
Zr      16.58140000      10.55134000      14.48758000       0.05696100      -0.13031200      -0.24130100
Zr      13.22977000      19.74026000      15.30297000      -0.22976500       0.03720400       0.09872800
Zr      18.22387000      14.95552000      18.02007000      -0.01723000       0.11816700       0.05696900
Zr      13.35578000      15.23295000      14.95780000      -0.02043900       0.08183900       0.12590800
Zr      13.48982000      10.56678000      14.80168000      -0.09978300      -0.09624000      -0.01261300
Zr      20.36953000      15.02182000      14.54498000       0.34969600      -0.11722400       0.01481000
Zr      17.68547000      15.09138000      11.87007000       0.13148800      -0.11911100      -0.18532900
O       13.65990000      16.17959000      17.00385000      -0.13380000       0.03229500       0.05300600
O        9.49756000      16.83962000      13.82858000      -0.10986000      -0.02031500       0.14185900
O       13.61878000      11.28447000      16.64214000       0.05857100      -0.08142500       0.02413300
O       18.41000000      15.53504000      13.81142000      -0.31257500       0.10084400      -0.07579900
O       18.18408000      10.31857000      13.33810000       0.01924400      -0.01442000       0.00446600
O       12.10778000      19.23402000      16.85373000       0.09658500      -0.06650800       0.15003000
O       11.87952000      14.40526000      16.41630000       0.18521800      -0.19524400      -0.03304000
O       15.82488000      18.84044000      13.38993000       0.01499600      -0.03765100      -0.18420100
O       19.24809000      14.29319000      16.12345000       0.11935800       0.20131400       0.08548000
O       16.11500000      14.20829000      12.99043000      -0.09602800      -0.14466300       0.13526900
O       14.33230000      13.44458000      18.58696000      -0.04805400      -0.18156000      -0.00621900
O       10.28976000      13.80714000      14.43569000      -0.02460100       0.13754700       0.11570800
O       18.29843000      18.92512000      14.80258000       0.11615000       0.01208400      -0.10464800
O       17.69055000      12.69103000      14.54019000      -0.20862100       0.03603200       0.13690700
O       13.79637000      13.85007000      10.87783000       0.28065600      -0.07464700      -0.01376300
O       16.42323000      15.93082000      18.61069000       0.04579300      -0.00936800       0.00597300
O       11.73569000      16.55948000      15.10342000      -0.02695100       0.26162000       0.21237300
O       11.18332000      11.33034000      15.16232000       0.04723400       0.11074800      -0.08251700
O       20.05345000      17.04223000      15.44517000      -0.05342700      -0.11125000      -0.12079800
O       16.01135000      16.35105000      11.41296000      -0.07488500      -0.04771300      -0.01995000
O       19.79183000      11.42400000      15.35617000       0.04016600       0.08312000       0.25146200
O       15.78182000      11.28753000      11.65861000      -0.32441500       0.49874700       0.48643900
O       11.21567000      12.92425000      18.38139000       0.04326000       0.08004800      -0.00666400
O       14.59167000      18.41268000      15.81203000       0.01511600       0.09415200      -0.18013600
O       18.96181000      13.16432000      18.45799000      -0.21121100      -0.04384100       0.00486700
O       14.72948000      13.96822000      15.75853000       0.15671200       0.09047400      -0.28258100
O       10.89025000      13.27493000      11.56737000      -0.00169900      -0.03082300       0.08953300
O       14.99740000       9.29012000      14.70622000      -0.02796300       0.11045500      -0.14114700
O       18.66803000      13.38728000      11.84825000      -0.09559600       0.11535700       0.11474400
O       11.92994000      16.16712000      19.00068000       0.13599500       0.00395300      -0.07747300
O       14.87201000      20.93590000      15.23199000      -0.01700600      -0.01632500       0.03988900
O       19.31978000      16.65314000      18.19754000      -0.24733200       0.02544700      -0.04718800
O       15.31271000      16.17269000      14.66665000       0.05509500      -0.03289800       0.03166500
O       11.25476000      16.53677000      11.38078000       0.15555700      -0.05372200       0.15281800
O       15.03498000      11.86020000      14.36953000      -0.18637200       0.12488400       0.10408200
O       18.61013000      16.92866000      11.67450000      -0.01723700       0.05559200      -0.00445300
O        9.91757000      16.88976000      17.00134000      -0.00805100      -0.07904900      -0.23735200
O       17.40786000      16.21793000      16.21036000       0.06244900      -0.09278800       0.13985200
O       13.17608000      16.28004000      13.00351000       0.12765100      -0.02848600       0.05483000
O       16.82058000      11.04952000      16.50452000       0.10999800       0.10508800       0.13255600
O       12.90356000      11.26119000      12.95014000      -0.03195000       0.11068700      -0.00123600
O       20.92505000      16.48104000      13.18326000       0.04071700      -0.20726400       0.16261600
O        9.00456000      14.11330000      16.56753000      -0.17194400      -0.25956900       0.12423700
O       16.80959000      18.62864000      17.09914000      -0.00117500      -0.06086100      -0.19040700
O       12.40140000      19.06017000      13.61430000      -0.13212100       0.24173300       0.10822500
O       16.89396000      13.67431000      16.90298000       0.11469700       0.03588500      -0.15113500
O       12.74836000      13.81797000      13.50288000       0.09130800       0.29543300      -0.00453500
O       20.82016000      13.35847000      13.72210000      -0.05245900       0.21235200       0.03556500
