72
Lattice="30.0 0.0 0.0 0.0 30.0 0.0 0.0 0.0 30.0" Properties=species:S:1:pos:R:3:forces:R:3 energy=-654.93785627 stress="-5.34381 1.24741 0.77832 1.24741 -9.65468 0.66795 0.77832 0.66795 -8.99569" pbc="T T T"
Zr      15.61846000      16.91259000      16.97065000       0.00396800       0.00129000       0.05874300
Zr      11.21089000      17.51790000      13.31275000       0.00511100      -0.09169900       0.04699700
Zr      15.13372000      12.33118000      16.86040000      -0.11230000      -0.03699800      -0.09949800
Zr      11.31229000      12.59848000      13.32956000      -0.04230200      -0.10266200      -0.09470700
Zr      19.29004000      17.48398000      13.36156000       0.07689200       0.09493800       0.00657100
Zr      19.27449000      11.94018000      13.47835000       0.06337900       0.13152400       0.00111800
Zr      11.78271000      17.19846000      17.36050000       0.01760500       0.03477900       0.09552500
Zr      10.55178000      12.83952000      16.48947000       0.11946600       0.11499200      -0.07148900
Zr      18.67205000      17.76249000      16.63588000       0.07752200       0.02509400      -0.07102600
Zr      15.20688000      17.04089000      12.81452000      -0.03948000       0.18221800      -0.02083700
Zr      18.59695000      12.25771000      16.64255000      -0.16978700       0.01995700       0.03445100
Zr      14.71083000      12.65845000      12.49695000      -0.20540100       0.13737600       0.08486600
Zr      12.57960000      14.13955000      18.48857000       0.02401800      -0.06874100      -0.02760400
Zr       9.63147000      15.66883000      15.44316000      -0.12327200       0.05464200       0.14107400
Zr      16.20358000      19.53896000      14.86569000      -0.00268000      -0.01663900       0.12371700
Zr      16.82322000      14.49559000      14.95836000      -0.04927400       0.04963700       0.15132400
Zr      12.39306000      14.87191000      11.57017000       0.03754900       0.08286700       0.05647900
Zr      16.47639000      10.53610000      14.22175000       0.11960500      -0.17885600       0.03462900
Zr      13.13495000      19.82095000      15.39192000       0.06699400      -0.04104600      -0.01815400
Zr      18.08928000      14.96242000      18.05830000       0.15765900      -0.03423000      -0.12456300
Zr      13.43054000      15.34678000      15.02727000       0.06930600      -0.05022200      -0.15084600
Zr      13.37441000      10.51737000      14.82608000       0.00064000       0.04164000      -0.03897300
Zr      20.40656000      14.97864000      14.57423000      -0.12355200       0.08419200       0.08797300
Zr      17.71263000      15.05501000      11.83864000       0.00006100      -0.14871500       0.01449400
O       13.67510000      16.35078000      16.85084000      -0.17751400       0.11002700       0.10734600
O        9.39784000      16.95590000      13.91481000      -0.04003100      -0.07718900       0.01160900
O       13.60298000      11.05269000      16.69525000      -0.08818800      -0.26693000       0.05968000
O       18.36130000      15.54903000      13.81192000       0.18215100      -0.10801500      -0.18255800
O       18.27165000      10.19969000      13.45271000       0.36153700      -0.03323100       0.01846300
O       12.34037000      19.12713000      17.07906000      -0.08809100      -0.00314300      -0.05801700
O       12.17426000      14.17090000      16.48614000      -0.21542200       0.07542600      -0.00685400
O       15.90095000      18.87325000      13.01433000       0.03660200       0.06339400       0.08800500
O       19.35836000      14.30447000      16.22786000      -0.23589900      -0.09935300      -0.05125400
O       16.10878000      14.12926000      13.02481000      -0.10298400       0.20829900       0.15230000
O       14.28801000      13.16219000      18.51276000       0.23356500       0.12195800      -0.19453800
O       10.43400000      13.95956000      14.50771000       0.05101600      -0.07887500      -0.12091200
O       18.31160000      18.95048000      14.63358000      -0.21680200      -0.14864200      -0.00710300
O       17.74391000      12.66610000      14.56038000      -0.12229600      -0.10080300      -0.09690800
O       13.98708000      13.85467000      10.97350000      -0.16183700      -0.14473300       0.12703000
O       16.27379000      16.01453000      18.55076000       0.12208400      -0.14785200      -0.15579700
O       11.64765000      16.52844000      15.17530000      -0.13207500      -0.16355600       0.00764900
O       11.20854000      11.37590000      15.07177000      -0.15665500       0.10087900      -0.01703500
O       19.95165000      17.01465000      15.42033000       0.21726200      -0.00767000       0.10069900
O       15.98277000      16.13729000      11.32695000      -0.15988300       0.13501600       0.03555300
O       19.91832000      11.49519000      15.42013000      -0.23118200       0.02458100       0.04987000
O       16.00915000      11.24921000      12.34927000      -0.45179900       0.06685600      -0.13562900
O       11.09371000      12.86193000      18.42366000       0.04619700      -0.12018500       0.04601800
O       14.49832000      18.42263000      15.30912000       0.02017700      -0.00455000      -0.02659500
O       18.72789000      13.12776000      18.53408000       0.18269900       0.17334200      -0.11968400
O       14.80681000      14.05450000      15.71428000       0.04277700       0.21148900       0.07580600
O       11.02563000      13.45832000      11.55273000       0.01597900       0.12690000       0.04145300
O       14.86048000       9.28441000      14.47470000       0.13191900       0.05452500      -0.03268700
O       18.62498000      13.34782000      11.91576000       0.10723100      -0.26768000      -0.13609300
O       12.08718000      16.06022000      18.94951000      -0.01390000      -0.20517100       0.03947400
O       14.83375000      20.95955000      15.21506000      -0.01786100      -0.05486600      -0.19444200
O       19.14203000      16.72209000      18.22713000      -0.02424200       0.05421600      -0.00108100
O       15.45832000      16.19861000      14.67768000       0.12651100       0.03941800      -0.12352300
O       11.28809000      16.60828000      11.55445000       0.06168300       0.03596200      -0.15637600
O       14.86589000      11.92125000      14.60622000       0.05185400      -0.02288400       0.01697200
O       18.55578000      16.92299000      11.64382000       0.19126800      -0.11163500       0.03936200
O        9.88238000      16.78331000      17.04931000      -0.10257900       0.08486200       0.03784000
O       17.42540000      16.14267000      16.26154000       0.20798100       0.17045600      -0.10212600
O       13.27339000      16.50855000      13.10884000      -0.12826800      -0.12009800      -0.08430800
O       16.80787000      11.04404000      16.40361000      -0.06489700       0.10702700       0.14172100
O       12.93194000      11.39015000      12.92347000       0.08442900       0.03388300       0.07387500
O       20.93599000      16.42534000      13.22401000      -0.07159500      -0.00139800       0.04687000
O        8.98421000      13.99005000      16.53163000       0.03851000       0.15868000      -0.05041800
O       16.70978000      18.65096000      16.76627000      -0.05617600       0.11517200       0.23199900
O       11.89639000      19.35317000      13.87960000       0.26709200      -0.23877900       0.07959800
O       16.90966000      13.64086000      16.84883000      -0.14079800       0.01701600       0.16615600
O       12.85426000      13.98500000      13.45448000       0.24207800      -0.09845600      -0.03554300
O       20.79181000      13.37134000      13.64691000       0.20664900       0.05097200       0.07386900
