72
Lattice="30.0 0.0 0.0 0.0 30.0 0.0 0.0 0.0 30.0" Properties=species:S:1:pos:R:3:forces:R:3 energy=-655.32968854 stress="-6.46884 0.4705 -0.60356 0.4705 -7.08261 -0.27435 -0.60356 -0.27435 -8.12349" pbc="T T T"
Zr      15.63398000      16.91906000      16.97580000       0.03151300      -0.00603800       0.01086300
Zr      11.19112000      17.47022000      13.29860000       0.01238900      -0.01558500      -0.03800700
Zr      15.11250000      12.31113000      16.82519000      -0.01268500       0.02226600      -0.01120300
Zr      11.30738000      12.60105000      13.32794000      -0.01941600      -0.00336000       0.00292300
Zr      19.30179000      17.44582000      13.34868000      -0.04083900       0.05358100      -0.08194800
Zr      19.28883000      11.98378000      13.50224000      -0.02333700       0.00946300      -0.02783400
Zr      11.76193000      17.18180000      17.38730000       0.03101500       0.01915200      -0.01345400
Zr      10.55362000      12.85227000      16.46142000       0.00841800       0.04026600       0.00910100
Zr      18.69841000      17.80165000      16.62083000      -0.01575700       0.00793300       0.03448800
Zr      15.17560000      17.10404000      12.81876000       0.04387600       0.03522500       0.00171500
Zr      18.53227000      12.24280000      16.67451000      -0.04785800      -0.01782000       0.02832800
Zr      14.65723000      12.69531000      12.53684000       0.05397200       0.03354700      -0.03311700
Zr      12.57634000      14.10352000      18.48442000       0.08896100      -0.07701500       0.00183800
Zr       9.60402000      15.68787000      15.46613000       0.00176500      -0.03891200      -0.02935000
Zr      16.20040000      19.53444000      14.90519000      -0.02513900       0.06045900       0.00868400
Zr      16.85138000      14.50903000      14.98856000      -0.03736400       0.01720900       0.01333200
Zr      12.40155000      14.89676000      11.58405000       0.02369800      -0.01980400       0.01778200
Zr      16.50827000      10.55996000      14.17189000       0.00755600       0.03051300      -0.01917600
Zr      13.13554000      19.79632000      15.39335000       0.06298300      -0.03244100       0.01305200
Zr      18.13976000      14.98708000      18.01349000      -0.00621400      -0.02881300       0.04044100
Zr      13.43502000      15.36220000      15.02954000       0.07921000      -0.05129500       0.01726900
Zr      13.39965000      10.47969000      14.81974000      -0.03884300       0.01812100       0.07871700
Zr      20.42764000      15.00406000      14.61047000       0.00223800      -0.05110500      -0.01528400
Zr      17.69698000      15.01003000      11.85200000      -0.03515800      -0.04107100      -0.01698800
O       13.66508000      16.39940000      16.85031000      -0.00930000      -0.01071900       0.01547700
O        9.36762000      16.92881000      13.89790000       0.02321800      -0.00774600      -0.02114500
O       13.59974000      10.97423000      16.70153000      -0.01715300      -0.05050500      -0.02784300
O       18.42254000      15.49905000      13.78931000       0.03061300       0.00860700       0.02310100
O       18.32969000      10.23036000      13.42290000       0.01752900       0.01511700      -0.02093900
O       12.30340000      19.11128000      17.06943000      -0.02267600      -0.01221000      -0.02426700
O       12.14972000      14.20477000      16.48706000      -0.02520500      -0.02500200       0.02964500
O       15.91778000      18.91764000      13.03768000      -0.02863500       0.01687600       0.04245700
O       19.22406000      14.30611000      16.14620000      -0.00469400      -0.03908100      -0.01163800
O       16.09279000      14.15856000      13.04592000       0.02372600       0.00362900       0.00250600
O       14.32373000      13.20672000      18.45766000      -0.05165600      -0.00580200       0.01520400
O       10.42983000      13.97211000      14.48451000      -0.02441500       0.00404800       0.06940400
O       18.27749000      18.87536000      14.64964000       0.00931400       0.00141700      -0.05493900
O       17.66311000      12.62565000      14.53198000       0.02735500      -0.07176700       0.02547300
O       13.94772000      13.81594000      10.97874000      -0.00008000      -0.00029800       0.01736900
O       16.31474000      15.96424000      18.50831000      -0.02269100       0.05721300      -0.01392800
O       11.61271000      16.49332000      15.17811000      -0.04739900      -0.01063400       0.03069600
O       11.16866000      11.39409000      15.06116000      -0.02969300      -0.00247100       0.03808800
O       20.02729000      17.03695000      15.44899000       0.02589600      -0.02088700       0.01000600
O       15.97479000      16.19883000      11.35850000      -0.01654800      -0.00321600       0.06743300
O       19.85708000      11.51439000      15.45716000       0.02147000      -0.01351200      -0.05406100
O       15.89588000      11.22840000      12.34856000       0.00289300      -0.00400500       0.00194400
O       11.13041000      12.78353000      18.38933000      -0.05805400      -0.04071600      -0.02118600
O       14.52083000      18.41586000      15.33957000      -0.00409600      -0.00238600      -0.01501000
O       18.83283000      13.17585000      18.49472000       0.02441300       0.06761000      -0.01105800
O       14.83217000      14.11082000      15.72342000      -0.04967700       0.02218500      -0.02435900
O       11.00921000      13.52238000      11.58115000      -0.02943700      -0.00611700      -0.03839000
O       14.92172000       9.29613000      14.45753000      -0.01712300      -0.05384100      -0.00058000
O       18.62903000      13.30102000      11.88147000       0.03618800       0.00345200       0.06054400
O       12.06116000      16.00223000      18.96265000      -0.04074800       0.01615000      -0.05437200
O       14.81073000      20.95218000      15.16674000      -0.02137000      -0.00500300       0.01821600
O       19.15657000      16.75602000      18.21976000       0.03144700       0.01524500      -0.03469400
O       15.49458000      16.23103000      14.64536000       0.00809600       0.00726500       0.00214200
O       11.31270000      16.63776000      11.50069000      -0.01089800       0.05136300       0.02913300
O       14.85085000      11.92482000      14.64328000       0.04480400       0.00184100      -0.01289600
O       18.60746000      16.83826000      11.62917000       0.06622000       0.02451000      -0.00487000
O        9.85005000      16.84007000      17.05466000      -0.02071000      -0.00081000      -0.00635700
O       17.46068000      16.20464000      16.22127000      -0.03170000       0.01551900      -0.00994000
O       13.24606000      16.46186000      13.10836000      -0.03593200       0.04115800       0.00763000
O       16.77931000      11.04228000      16.45753000      -0.01618500       0.01989200       0.00451700
O       12.92573000      11.37851000      12.94998000      -0.01316000       0.00630100      -0.04522100
O       20.95455000      16.42327000      13.23455000       0.03460000      -0.01530600      -0.01501400
O        8.98599000      14.02192000      16.53581000       0.01667700       0.02780500      -0.01528300
O       16.70568000      18.68046000      16.84439000       0.02759000      -0.00311100       0.01194700
O       11.98721000      19.25153000      13.85858000      -0.02073700       0.00384100      -0.02532000
O       16.87950000      13.64081000      16.88495000       0.01017400       0.03456800       0.04658400
O       12.89434000      13.95667000      13.46955000       0.01894300      -0.03655500      -0.00122600
O       20.84077000      13.38500000      13.71119000       0.02382200       0.01161000       0.00284900
