72
Lattice="30.0 0.0 0.0 0.0 30.0 0.0 0.0 0.0 30.0" Properties=species:S:1:pos:R:3:forces:R:3 energy=-655.34664367 stress="-7.59492 0.29597 -0.38394 0.29597 -6.88123 -0.05724 -0.38394 -0.05724 -8.14856" pbc="T T T"
Zr      15.63799000      16.93101000      16.97748000       0.03010900      -0.00473800       0.01508500
Zr      11.19442000      17.46839000      13.29247000      -0.00931800      -0.00461900       0.03699700
Zr      15.10745000      12.31082000      16.82310000       0.04888000      -0.02889900      -0.01291900
Zr      11.30433000      12.59919000      13.33119000       0.00132800       0.01543700       0.00616100
Zr      19.30797000      17.44104000      13.33276000       0.01606200       0.02552600       0.00357700
Zr      19.28922000      11.98655000      13.50453000      -0.02853600       0.00858800       0.04671100
Zr      11.75440000      17.17514000      17.37437000      -0.00957900      -0.02156800       0.00959100
Zr      10.54354000      12.85502000      16.46168000       0.00687900       0.03606400       0.01078400
Zr      18.70548000      17.80551000      16.61209000       0.04875700      -0.02998200      -0.03166200
Zr      15.17002000      17.12426000      12.83502000      -0.03645300       0.03623100       0.05892200
Zr      18.52665000      12.24102000      16.67744000      -0.03604200       0.02113600       0.04139300
Zr      14.66089000      12.69996000      12.53701000       0.02077600      -0.02812600       0.01804600
Zr      12.56778000      14.08170000      18.49247000      -0.04111200      -0.01846700       0.00030500
Zr       9.59524000      15.69056000      15.46068000      -0.01053700      -0.01667900      -0.03961400
Zr      16.20454000      19.55292000      14.91643000       0.00791200       0.01213900      -0.02920200
Zr      16.86095000      14.50679000      14.99358000      -0.02343300       0.00665600       0.02636700
Zr      12.40129000      14.89586000      11.58977000       0.00910700       0.00924600       0.01795100
Zr      16.50713000      10.55984000      14.16123000      -0.04404100       0.02365800      -0.00544300
Zr      13.13607000      19.78540000      15.38908000      -0.02686600       0.01788100      -0.00695000
Zr      18.14014000      14.99535000      18.01593000      -0.01078800       0.00468500      -0.02729400
Zr      13.43914000      15.36054000      15.03762000       0.00705600      -0.04939500      -0.01535600
Zr      13.39690000      10.47727000      14.82067000       0.00008200      -0.01199300      -0.01118100
Zr      20.43445000      15.00041000      14.60814000      -0.01492800       0.09230400       0.01711100
Zr      17.69862000      15.01016000      11.85552000      -0.00408900      -0.00184800       0.00125400
O       13.67105000      16.40041000      16.84880000       0.00516000       0.02850000      -0.00251400
O        9.36975000      16.92100000      13.88012000       0.01393900      -0.00376800       0.00948800
O       13.60590000      10.95889000      16.69951000      -0.02749800       0.00223900       0.00350700
O       18.42942000      15.50325000      13.78804000      -0.03162800       0.01837700      -0.02693400
O       18.32843000      10.24011000      13.40069000       0.01630900      -0.02689700       0.01432200
O       12.29281000      19.10727000      17.05868000      -0.00085200      -0.02713300      -0.00264500
O       12.15510000      14.19424000      16.49800000      -0.02099800      -0.03433200      -0.01637800
O       15.90625000      18.94194000      13.05310000      -0.00796800       0.01306200      -0.02162900
O       19.20071000      14.29515000      16.12186000      -0.01386700       0.02984300       0.00165700
O       16.10667000      14.14641000      13.04823000      -0.00109700      -0.01036800       0.01762500
O       14.31441000      13.19145000      18.46044000      -0.00309200       0.00259100       0.03620900
O       10.43087000      13.97017000      14.49650000      -0.00882800       0.00545100       0.00679800
O       18.28037000      18.87050000      14.62659000      -0.00948500      -0.00086000       0.02751500
O       17.65195000      12.60729000      14.54725000       0.05283900      -0.01396500      -0.04973900
O       13.94902000      13.81920000      10.98173000      -0.00604000       0.01652600      -0.00348200
O       16.31563000      15.98442000      18.51530000       0.01383000       0.03439700      -0.02333900
O       11.60606000      16.48593000      15.18512000      -0.00272500       0.00059900      -0.00241800
O       11.15907000      11.39500000      15.06685000      -0.00050700      -0.00911800      -0.00722700
O       20.03656000      17.03330000      15.44772000      -0.01222400       0.01522100      -0.02191700
O       15.97523000      16.20458000      11.39050000       0.00528800       0.01754000       0.00505600
O       19.85252000      11.51390000      15.45871000       0.00882600      -0.02107300      -0.00770300
O       15.89521000      11.22606000      12.34201000      -0.02660800       0.00484000       0.01548400
O       11.12092000      12.75935000      18.38669000      -0.02789100       0.01822300      -0.00061400
O       14.53337000      18.41514000      15.34139000       0.01791500      -0.00517100       0.00646500
O       18.85602000      13.19809000      18.48833000      -0.00953500      -0.00080200      -0.00115700
O       14.83390000      14.10700000      15.71597000       0.00925900      -0.01226700      -0.00082700
O       11.00224000      13.52899000      11.58593000       0.00167600      -0.00693900      -0.00693200
O       14.91763000       9.29259000      14.45692000       0.02464200      -0.00502500      -0.02329300
O       18.63977000      13.30511000      11.90442000       0.02179000      -0.01771400      -0.00654900
O       12.04502000      15.98767000      18.94177000      -0.00402000      -0.01373800       0.02147800
O       14.79687000      20.95442000      15.18095000       0.04054900       0.03340800       0.01439000
O       19.17204000      16.75827000      18.20669000      -0.00931300       0.00065800      -0.01383000
O       15.50015000      16.22828000      14.64193000      -0.00295500      -0.01548600       0.00816700
O       11.32060000      16.64474000      11.49637000       0.02016800      -0.01923500      -0.02924000
O       14.85103000      11.92134000      14.63815000       0.01439100      -0.01925200       0.00257900
O       18.62714000      16.82583000      11.61110000       0.00319000       0.00912900      -0.00660300
O        9.83778000      16.84599000      17.04585000      -0.00272300       0.02482000       0.00585400
O       17.45879000      16.21301000      16.22057000      -0.00911600      -0.00593300       0.01248900
O       13.24043000      16.46963000      13.12021000       0.00871900      -0.01893300       0.00264600
O       16.76989000      11.04686000      16.47380000       0.02193700      -0.00565500      -0.00118000
O       12.91888000      11.38081000      12.94633000       0.01037000      -0.00936200       0.00031400
O       20.96323000      16.41940000      13.23113000       0.00955300      -0.02151000      -0.01210300
O        8.98032000      14.03489000      16.54042000       0.00992300      -0.01932100      -0.01019400
O       16.71958000      18.69290000      16.84632000      -0.01012400       0.00913800      -0.02102100
O       11.98936000      19.25037000      13.84649000       0.01178600       0.00940600       0.01844500
O       16.87409000      13.64875000      16.90158000      -0.00919900       0.01110300       0.00084500
O       12.89636000      13.95185000      13.47196000       0.00223900       0.02838200      -0.00629800
O       20.85379000      13.38456000      13.71690000       0.01276600      -0.08283400      -0.03619900
