72
Lattice="30.0 0.0 0.0 0.0 30.0 0.0 0.0 0.0 30.0" Properties=species:S:1:pos:R:3:forces:R:3 energy=-655.35217846 stress="-7.62652 0.35729 -0.03868 0.35729 -6.76659 -0.27486 -0.03868 -0.27486 -8.09662" pbc="T T T"
Zr      15.64090000      16.93684000      16.97765000      -0.01745400       0.03764700      -0.01647900
Zr      11.19689000      17.46710000      13.29335000       0.01679400      -0.00930500      -0.01334800
Zr      15.10875000      12.30378000      16.82484000      -0.01442900       0.02913800       0.01553000
Zr      11.30470000      12.59872000      13.33202000       0.00459900       0.01626200       0.01106800
Zr      19.31290000      17.44250000      13.32548000       0.00611500       0.02146400      -0.01171600
Zr      19.29008000      11.98528000      13.51204000       0.02130000      -0.03319700      -0.00126400
Zr      11.75034000      17.16843000      17.37085000      -0.00109000      -0.00545500       0.00994600
Zr      10.53905000      12.85696000      16.46242000       0.00201900      -0.04324100      -0.02365600
Zr      18.71055000      17.80389000      16.60441000      -0.00535200       0.01937600      -0.01060000
Zr      15.16479000      17.13628000      12.84732000      -0.01522500       0.00828900       0.00955100
Zr      18.52321000      12.24340000      16.68223000       0.00909700      -0.00535200      -0.01526700
Zr      14.66431000      12.70308000      12.54064000      -0.02661200      -0.01118800      -0.03330900
Zr      12.56154000      14.07151000      18.49666000       0.00234400      -0.01300400       0.01021300
Zr       9.59247000      15.69056000      15.45615000      -0.00948000      -0.00024400       0.02582800
Zr      16.20792000      19.56124000      14.91768000      -0.00935200       0.02715500      -0.01378200
Zr      16.86024000      14.50471000      14.99706000       0.02145500       0.02222600      -0.00857900
Zr      12.40261000      14.89703000      11.59278000       0.00113900      -0.00558000      -0.00085400
Zr      16.50481000      10.55811000      14.15391000       0.02392100       0.00865000       0.03163300
Zr      13.13625000      19.78647000      15.38843000       0.01794800      -0.01114500       0.02294400
Zr      18.13852000      14.99993000      18.01457000       0.01941100       0.01177900      -0.00483600
Zr      13.44058000      15.35305000      15.03965000       0.00260800       0.00932100       0.03496900
Zr      13.39586000      10.47559000      14.81792000       0.01238200      -0.01830100       0.01127700
Zr      20.43086000      15.00076000      14.60116000       0.02657600       0.00558700      -0.02723000
Zr      17.70059000      15.01107000      11.85723000      -0.01499800       0.00421200       0.00335400
O       13.67359000      16.40458000      16.84575000      -0.00736900      -0.00396600      -0.01020000
O        9.37225000      16.91787000      13.87428000      -0.00716500       0.01275500      -0.00456200
O       13.60447000      10.95585000      16.69810000      -0.02060900      -0.00048100      -0.01071600
O       18.42773000      15.50980000      13.78617000      -0.02941000       0.01007600      -0.02519200
O       18.32845000      10.23778000      13.39865000       0.00950600      -0.00625700       0.01857100
O       12.28860000      19.10058000      17.05250000       0.01478600      -0.00884300      -0.00801300
O       12.15475000      14.18423000      16.50033000       0.02482500       0.01425900      -0.01557300
O       15.89996000      18.95562000      13.05407000       0.00896300       0.02036300      -0.01330800
O       19.19051000      14.29711000      16.11272000      -0.01001700       0.01781100       0.02038700
O       16.11048000      14.13754000      13.05246000       0.00208600       0.01404500      -0.00677800
O       14.31119000      13.18516000      18.46516000       0.00640800      -0.01455900      -0.01103800
O       10.43130000      13.97065000      14.49806000      -0.01602600       0.00399300      -0.00417100
O       18.28185000      18.86811000      14.62120000      -0.00775000       0.00465500       0.01551100
O       17.65419000      12.60627000      14.54634000      -0.01976100      -0.00229800       0.01806500
O       13.94882000      13.82254000      10.98332000       0.03064900      -0.00636300       0.00989500
O       16.31995000      15.99824000      18.51713000       0.01479600      -0.00361700       0.00990500
O       11.60363000      16.48065000      15.18591000       0.00457300      -0.00784700       0.00750300
O       11.15600000      11.39484000      15.06600000       0.00302200      -0.00503400       0.00059800
O       20.04056000      17.03399000      15.43928000       0.00251000       0.00691100      -0.00425100
O       15.97595000      16.21089000      11.40814000      -0.01698700       0.03282000       0.04091800
O       19.84846000      11.51006000      15.46362000       0.00668400      -0.00395300       0.02802800
O       15.89117000      11.22387000      12.34182000      -0.00546600      -0.00709000      -0.03482600
O       11.11044000      12.75587000      18.38922000      -0.03230200       0.00258300      -0.00635900
O       14.53914000      18.41764000      15.34024000      -0.00123400       0.02004400      -0.01681200
O       18.86158000      13.20355000      18.48623000      -0.02175300       0.01450000       0.00563600
O       14.83584000      14.10058000      15.71340000      -0.00624800      -0.03045600       0.01982500
O       11.00223000      13.52950000      11.58850000       0.00380300      -0.00251600      -0.01147500
O       14.91897000       9.29198000      14.45289000      -0.01257800      -0.02332900      -0.01522200
O       18.64483000      13.30811000      11.90895000      -0.00046000      -0.00242800      -0.00659200
O       12.03786000      15.97723000      18.93790000       0.00375100       0.00789900       0.01042100
O       14.79822000      20.95968000      15.18868000       0.01404900       0.01129400       0.00933600
O       19.17642000      16.75898000      18.20013000       0.00271400      -0.00590700      -0.00486300
O       15.49979000      16.22347000      14.64241000      -0.00007100       0.00093800       0.02510700
O       11.32643000      16.64509000      11.49327000       0.00649800       0.02573500       0.01854900
O       14.85216000      11.91780000      14.63700000       0.01026500      -0.01524600       0.03432400
O       18.63420000      16.82377000      11.60436000       0.00524800       0.00611000      -0.00374500
O        9.83172000      16.85105000      17.04212000       0.00983300      -0.01186900      -0.03314800
O       17.45937000      16.21501000      16.22186000      -0.02339900      -0.00934400      -0.02107400
O       13.23928000      16.46845000      13.12705000      -0.00986400       0.00075300      -0.00404800
O       16.77079000      11.04775000      16.48005000       0.00873600      -0.00020900       0.00475200
O       12.92025000      11.38136000      12.94690000      -0.00777700      -0.00395100       0.00633400
O       20.96745000      16.41695000      13.22703000      -0.00901300      -0.02480500      -0.02460200
O        8.97828000      14.03783000      16.54037000      -0.01097000      -0.00945900      -0.01173400
O       16.72315000      18.69950000      16.84413000       0.01603200      -0.01917100      -0.02711200
O       11.99047000      19.25116000      13.84621000       0.01189000      -0.00569200       0.01202500
O       16.86984000      13.65322000      16.90855000      -0.00203500      -0.02382700      -0.00661500
O       12.89660000      13.95398000      13.47284000       0.00045800      -0.02597700       0.00001900
O       20.85890000      13.37901000      13.71641000      -0.01753700      -0.00814400       0.02093000
