72
Lattice="30.0 0.0 0.0 0.0 30.0 0.0 0.0 0.0 30.0" Properties=species:S:1:pos:R:3:forces:R:3 energy=-655.36228041 stress="-8.22991 0.22521 -0.07383 0.22521 -7.53877 -0.07103 -0.07383 -0.07103 -8.39088" pbc="T T T"
Zr      15.64224000      16.95523000      16.97065000       0.02252600      -0.01773900      -0.00430600
Zr      11.20750000      17.46332000      13.29679000      -0.02059000       0.00168100      -0.00048000
Zr      15.10599000      12.29714000      16.83164000      -0.01340200      -0.00513400      -0.03012800
Zr      11.30531000      12.59873000      13.33135000       0.03712400       0.00184700      -0.01509600
Zr      19.32128000      17.44649000      13.30458000      -0.01746100      -0.01294900      -0.01757400
Zr      19.29445000      11.97624000      13.52798000      -0.00627900      -0.00869600      -0.00818400
Zr      11.74334000      17.15545000      17.36600000       0.01203300       0.00783000      -0.00297200
Zr      10.53053000      12.85211000      16.45319000      -0.02018600      -0.00993400      -0.01611600
Zr      18.71575000      17.80682000      16.58355000      -0.01634600       0.00263500       0.00011400
Zr      15.15069000      17.16980000      12.88461000       0.00823100      -0.00251600       0.00945200
Zr      18.51970000      12.24660000      16.69049000       0.00062400       0.00971400      -0.00489200
Zr      14.66484000      12.69767000      12.54158000       0.00567100       0.01212700       0.00627100
Zr      12.54624000      14.04856000      18.50543000      -0.02219400      -0.00990100      -0.02331900
Zr       9.58054000      15.68972000      15.44971000      -0.00432300       0.00839300      -0.02070200
Zr      16.21748000      19.59010000      14.91447000       0.00254800       0.02153200      -0.00313800
Zr      16.86357000      14.50093000      14.99889000      -0.00552900       0.01706500      -0.01390100
Zr      12.41179000      14.89971000      11.59642000       0.01886300      -0.00102600       0.00983700
Zr      16.50424000      10.55084000      14.15027000      -0.00613900       0.01317900       0.00568400
Zr      13.14330000      19.78902000      15.39571000      -0.02873500      -0.01016200      -0.01994100
Zr      18.13942000      15.01392000      18.00893000      -0.01416500       0.01205000      -0.01381400
Zr      13.44085000      15.34024000      15.05264000      -0.00834900      -0.00869700       0.01584800
Zr      13.39824000      10.46356000      14.81727000      -0.00226900       0.01884300      -0.02099300
Zr      20.42641000      15.00315000      14.58734000       0.00092300      -0.01813500       0.00452200
Zr      17.69769000      15.01474000      11.86034000      -0.03151300      -0.01370900       0.01727200
O       13.67702000      16.41358000      16.84365000      -0.01863200      -0.00470100      -0.03145000
O        9.37628000      16.91773000      13.86393000       0.00482500      -0.00348200       0.01623400
O       13.59595000      10.95035000      16.69529000       0.01890000       0.00278800       0.00140200
O       18.41986000      15.52477000      13.78026000      -0.00733500      -0.00108100      -0.01654100
O       18.33165000      10.22977000      13.40610000       0.02441700      -0.00010700       0.00101400
O       12.29315000      19.08566000      17.04894000       0.01582500       0.00343900       0.02225200
O       12.16228000      14.16701000      16.50531000      -0.01088600       0.00544300       0.00651000
O       15.89590000      18.99391000      13.05328000       0.01664000       0.00809000       0.01212400
O       19.17187000      14.30510000      16.09799000       0.02164300      -0.01630300       0.01179500
O       16.11487000      14.12806000      13.05583000      -0.01148400      -0.00752200       0.00677900
O       14.29957000      13.16724000      18.47348000       0.00075200      -0.00038800       0.00055900
O       10.42818000      13.96949000      14.49661000       0.01644700      -0.00637900      -0.01522600
O       18.28621000      18.87163000      14.60512000       0.00612400       0.00632000      -0.00343300
O       17.65388000      12.59621000      14.55530000      -0.01505000       0.00638700       0.00187100
O       13.96151000      13.82867000      10.98696000       0.00365900      -0.01174900       0.00456700
O       16.32819000      16.02325000      18.51561000      -0.00733300      -0.00611600      -0.04106200
O       11.59688000      16.46404000      15.19307000       0.01875500       0.00643300       0.00582900
O       11.14823000      11.39089000      15.06154000      -0.00422400       0.00351200      -0.00719400
O       20.04975000      17.03962000      15.41802000       0.01698000       0.00865000      -0.01855600
O       15.96961000      16.24149000      11.45809000      -0.01070100       0.00497100       0.01828600
O       19.84891000      11.50430000      15.47852000      -0.01820600       0.01356100       0.02799700
O       15.88812000      11.21484000      12.33684000       0.02253400      -0.00788000       0.00138600
O       11.08145000      12.74769000      18.38497000       0.02203700       0.00092100       0.00674800
O       14.55482000      18.42861000      15.32294000       0.01149500      -0.01129500      -0.00801700
O       18.86308000      13.22095000      18.48699000      -0.00379500      -0.00745300      -0.01223800
O       14.83355000      14.08316000      15.71392000      -0.00056600      -0.02280600       0.00446700
O       11.00961000      13.53331000      11.58675000       0.01274700       0.00177500      -0.00300300
O       14.92120000       9.28073000      14.44212000      -0.01991900      -0.01640300       0.02845700
O       18.64905000      13.31568000      11.92531000      -0.00640400       0.00789200       0.01333900
O       12.03035000      15.95859000      18.92995000      -0.00546000       0.00727200       0.00663700
O       14.79671000      20.97484000      15.21018000       0.01819700       0.01094400       0.00203000
O       19.19021000      16.76494000      18.17962000      -0.00131600       0.00635500      -0.00344200
O       15.49169000      16.21734000      14.65961000       0.00589600      -0.00307600      -0.00689700
O       11.34243000      16.65407000      11.49272000       0.00777700      -0.00958300       0.00150500
O       14.85778000      11.90238000      14.63822000      -0.01145900       0.00413800       0.03157500
O       18.64306000      16.82033000      11.58651000      -0.00707100       0.00652200       0.00635700
O        9.82196000      16.85385000      17.02961000       0.00068200      -0.00143200       0.03402800
O       17.45598000      16.22354000      16.21456000       0.01607400       0.00654800      -0.00449700
O       13.23330000      16.46403000      13.14345000       0.01391300       0.00506600       0.01067500
O       16.77129000      11.04724000      16.49511000       0.00052400       0.00617300       0.01706000
O       12.92023000      11.37603000      12.95173000      -0.01420600       0.00147100      -0.01364800
O       20.96505000      16.39981000      13.20013000      -0.01100300       0.00319500       0.00838700
O        8.96801000      14.03441000      16.53041000       0.00283900      -0.00459600      -0.01382400
O       16.73420000      18.71294000      16.82930000       0.00066600       0.00728000      -0.00518500
O       12.00372000      19.24719000      13.85129000       0.01325600       0.00600300       0.01640500
O       16.86606000      13.65724000      16.91284000      -0.02018700      -0.02319400       0.02227300
O       12.90046000      13.94737000      13.47386000      -0.00704400      -0.01372000      -0.00390200
O       20.86229000      13.36706000      13.73250000       0.00761300       0.01982000       0.00611800
