72
Lattice="30.0 0.0 0.0 0.0 30.0 0.0 0.0 0.0 30.0" Properties=species:S:1:pos:R:3:forces:R:3 energy=-655.36278303 stress="-8.23242 0.25655 -0.03394 0.25655 -7.53379 -0.04896 -0.03394 -0.04896 -8.37156" pbc="T T T"
Zr      15.64253000      16.95634000      16.96886000       0.01504900       0.00719800      -0.02121500
Zr      11.20819000      17.46272000      13.29735000      -0.01464800       0.00731300      -0.00065000
Zr      15.10588000      12.29639000      16.83181000      -0.02343700       0.00352700      -0.02310600
Zr      11.30549000      12.59848000      13.33023000       0.04445600      -0.00090000      -0.01709700
Zr      19.32107000      17.44615000      13.30210000      -0.00788500      -0.01171400      -0.00058800
Zr      19.29439000      11.97630000      13.52939000      -0.00476800      -0.01967900      -0.00045700
Zr      11.74257000      17.15496000      17.36547000       0.03099000       0.00635900       0.00200600
Zr      10.52971000      12.85160000      16.45130000      -0.01905200      -0.00381400       0.00179000
Zr      18.71643000      17.80698000      16.58209000      -0.01829700       0.02452500      -0.03869800
Zr      15.15011000      17.17353000      12.88881000      -0.00921000      -0.00512400       0.01682300
Zr      18.51914000      12.24667000      16.69155000       0.00858000       0.01460200      -0.00928300
Zr      14.66554000      12.69669000      12.54205000       0.00114700       0.01923600       0.00261000
Zr      12.54431000      14.04630000      18.50638000      -0.00878200       0.00288400      -0.02486500
Zr       9.57922000      15.68913000      15.44932000       0.00144000       0.02232500      -0.02345100
Zr      16.21844000      19.59364000      14.91390000       0.01653000       0.01820900       0.01514200
Zr      16.86274000      14.49972000      14.99859000       0.00934200       0.04494800      -0.01078000
Zr      12.41374000      14.89996000      11.59711000       0.02471000       0.01687900       0.00753000
Zr      16.50431000      10.54871000      14.15038000      -0.00285800       0.02969400       0.00858000
Zr      13.14380000      19.78916000      15.39674000      -0.01686700      -0.01537800      -0.01153500
Zr      18.13906000      15.01552000      18.00779000      -0.01194200       0.00475200      -0.01201200
Zr      13.44007000      15.33835000      15.05281000       0.00422200       0.00717500       0.04223300
Zr      13.39847000      10.46221000      14.81697000      -0.01548100       0.03397800      -0.00885500
Zr      20.42582000      15.00237000      14.58744000      -0.00483400       0.04331900       0.00258800
Zr      17.69689000      15.01536000      11.86049000      -0.04002300      -0.00469700       0.02581800
O       13.67737000      16.41462000      16.84398000      -0.02128600      -0.01158800      -0.05003200
O        9.37671000      16.91821000      13.86360000      -0.00019200      -0.00857200       0.01901400
O       13.59581000      10.94989000      16.69519000       0.01740600      -0.00018100      -0.00522300
O       18.41923000      15.52525000      13.78028000      -0.01598500      -0.00242400      -0.02545300
O       18.33238000      10.22870000      13.40744000       0.02361000       0.00564300       0.00164800
O       12.29523000      19.08493000      17.05061000       0.01140100       0.00232700       0.01417200
O       12.16248000      14.16572000      16.50536000      -0.01840100      -0.00140200       0.01134200
O       15.89658000      18.99744000      13.05390000       0.01663700       0.00913200      -0.00587700
O       19.17090000      14.30482000      16.09714000       0.02416800      -0.01602300       0.01548400
O       16.11447000      14.12742000      13.05646000      -0.01610200      -0.01276500       0.00006400
O       14.29798000      13.16547000      18.47422000       0.00161900      -0.00113100      -0.00436000
O       10.42866000      13.96906000      14.49545000       0.01145300      -0.00447000      -0.00867900
O       18.28715000      18.87324000      14.60221000       0.00399900       0.00020000       0.00407200
O       17.65373000      12.59509000      14.55664000      -0.01957000       0.00018600      -0.00422200
O       13.96287000      13.82911000      10.98725000       0.01160200      -0.02080300       0.00717300
O       16.32823000      16.02453000      18.51400000      -0.00031600      -0.01050900      -0.03437500
O       11.59588000      16.46240000      15.19404000       0.02112400       0.00848300       0.00221700
O       11.14734000      11.39027000      15.06030000      -0.00630600       0.00838000      -0.00387300
O       20.05093000      17.04061000      15.41529000       0.00982600       0.01216100      -0.00823500
O       15.96838000      16.24541000      11.46310000      -0.00493500      -0.00913600       0.00965700
O       19.84940000      11.50466000      15.47987000      -0.02704000       0.01468800       0.02955700
O       15.88902000      11.21400000      12.33752000       0.02539500      -0.01385800      -0.00197300
O       11.07961000      12.74633000      18.38430000       0.01106800      -0.00355800      -0.00666000
O       14.55697000      18.42981000      15.31988000       0.00013100      -0.01348200      -0.00302500
O       18.86277000      13.22273000      18.48692000      -0.00501800      -0.00920500      -0.01150200
O       14.83363000      14.08180000      15.71385000      -0.00899500      -0.02732600       0.00385000
O       11.01160000      13.53438000      11.58610000       0.00203500      -0.00885800      -0.00275700
O       14.92086000       9.27959000      14.44243000      -0.01067900      -0.02762200       0.02562500
O       18.64820000      13.31699000      11.92842000       0.00403200      -0.00538900       0.00821300
O       12.03030000      15.95784000      18.92910000      -0.00927600      -0.00391100       0.00507600
O       14.79613000      20.97619000      15.21232000       0.01224400       0.01781600       0.00098300
O       19.19147000      16.76625000      18.17679000       0.00239500      -0.00716200       0.02041300
O       15.49034000      16.21674000      14.66203000       0.01251000      -0.00807200      -0.01134000
O       11.34423000      16.65467000      11.49300000       0.00707800      -0.01116800       0.00293100
O       14.85754000      11.90113000      14.63768000      -0.00263000       0.00030400       0.03730600
O       18.64215000      16.81943000      11.58466000      -0.00877800       0.00494000      -0.00451900
O        9.82108000      16.85323000      17.02974000      -0.00746900      -0.00657100       0.02457800
O       17.45673000      16.22464000      16.21334000       0.01062300      -0.00151900      -0.00564300
O       13.23327000      16.46341000      13.14576000       0.01201400       0.00696000       0.00738100
O       16.77077000      11.04732000      16.49690000       0.00312400       0.00131400       0.01446800
O       12.92042000      11.37433000      12.95209000      -0.01819400       0.01159600      -0.02031000
O       20.96392000      16.39789000      13.19646000      -0.01915200      -0.00108300       0.02223300
O        8.96601000      14.03410000      16.52838000       0.01652000      -0.01612900      -0.01566300
O       16.73453000      18.71561000      16.82788000       0.00649700      -0.01152500      -0.00549100
O       12.00590000      19.24660000      13.85196000       0.00304300       0.00095300       0.01283600
O       16.86611000      13.65821000      16.91215000      -0.02608900      -0.03455200       0.03717900
O       12.90116000      13.94680000      13.47376000      -0.00853700      -0.02709600      -0.00446200
O       20.86247000      13.36692000      13.73548000       0.01501700      -0.01361400      -0.01632600
