72
Lattice="30.0 0.0 0.0 0.0 30.0 0.0 0.0 0.0 30.0" Properties=species:S:1:pos:R:3:forces:R:3 energy=-655.3654739 stress="-8.13742 0.14167 0.03423 0.14167 -7.49114 -0.03184 0.03423 -0.03184 -8.13692" pbc="T T T"
Zr      15.64350000      16.95919000      16.96330000       0.00290700       0.00497200      -0.01557700
Zr      11.20861000      17.46233000      13.29811000       0.00490800      -0.00374400       0.00463800
Zr      15.10428000      12.29525000      16.83122000       0.00896100      -0.00995600       0.01258200
Zr      11.30916000      12.59793000      13.32669000      -0.02181700       0.01217100       0.00420200
Zr      19.31987000      17.44501000      13.29757000      -0.01495800       0.00780900      -0.01006300
Zr      19.29433000      11.97492000      13.53236000       0.00393100       0.00816100       0.01275100
Zr      11.74323000      17.15374000      17.36554000      -0.01349200       0.00076600       0.00513000
Zr      10.52648000      12.85008000      16.44787000       0.00469000      -0.00798100      -0.00756100
Zr      18.71702000      17.80955000      16.57573000       0.01703300      -0.00525700       0.02321300
Zr      15.14831000      17.18094000      12.89822000      -0.00327100      -0.00994900      -0.00648200
Zr      18.51789000      12.24825000      16.69361000      -0.01671200      -0.01430900       0.00262500
Zr      14.66725000      12.69545000      12.54327000      -0.01033400      -0.00481900      -0.00755800
Zr      12.54128000      14.04266000      18.50586000      -0.00949500      -0.00247900      -0.00870100
Zr       9.57794000      15.68961000      15.44832000       0.02604100      -0.00542300       0.00137800
Zr      16.22160000      19.60236000      14.91373000       0.00956400      -0.00403000      -0.00817600
Zr      16.86247000      14.50055000      14.99861000       0.00162400      -0.01404500       0.01378200
Zr      12.41914000      14.90139000      11.59925000       0.01119900      -0.00742000       0.00182400
Zr      16.50419000      10.54755000      14.15207000       0.00161100      -0.00433400       0.00868800
Zr      13.14501000      19.78829000      15.39835000       0.00406500       0.00049200       0.00476500
Zr      18.13824000      15.01733000      18.00499000       0.01946600       0.02909400       0.00451700
Zr      13.43906000      15.33503000      15.05772000      -0.01866100      -0.00727700      -0.03193500
Zr      13.39742000      10.46224000      14.81622000      -0.00495700      -0.01616800      -0.00089700
Zr      20.42476000      15.00376000      14.58744000       0.00477500      -0.00846500      -0.01528400
Zr      17.69179000      15.01532000      11.86262000      -0.01224600      -0.00728300      -0.01569500
O       13.67665000      16.41550000      16.83907000       0.00581700       0.00783000      -0.00580200
O        9.37707000      16.91881000      13.86420000      -0.00729900       0.00393700       0.00182000
O       13.59651000      10.94843000      16.69411000      -0.01233200      -0.01016200       0.00526400
O       18.41606000      15.52613000      13.77805000      -0.00812400       0.00501600       0.01161200
O       18.33570000      10.22733000      13.41027000      -0.01057600       0.00646400       0.01272600
O       12.30035000      19.08422000      17.05457000       0.00902700      -0.00363400      -0.00700300
O       12.16076000      14.16340000      16.50607000      -0.00831900       0.00834000      -0.00403800
O       15.89958000      19.00458000      13.05451000       0.01500500       0.01688900       0.00674400
O       19.17160000      14.30348000      16.09695000      -0.00255000       0.01193600       0.00444000
O       16.11190000      14.12511000      13.05768000      -0.00093400       0.00297400       0.01313000
O       14.29462000      13.16255000      18.47483000      -0.00087000       0.00532100      -0.00633800
O       10.43044000      13.96862000      14.49286000       0.00328500       0.01318700       0.00374100
O       18.28922000      18.87600000      14.59799000      -0.00280800       0.00210100       0.01727500
O       17.65096000      12.59346000      14.55828000      -0.00924700       0.00302500      -0.00629800
O       13.96692000      13.82754000      10.98852000       0.00958100      -0.01265400       0.00368700
O       16.32785000      16.02601000      18.50734000      -0.01289700      -0.00315800      -0.01655900
O       11.59576000      16.46096000      15.19547000      -0.00935900       0.02064900      -0.00089600
O       11.14523000      11.39009000      15.05763000       0.00581600       0.00086700      -0.00465600
O       20.05349000      17.04407000      15.41012000       0.00321500       0.00381000       0.00083900
O       15.96534000      16.25102000      11.47308000      -0.02353300      -0.00849100       0.01799900
O       19.84798000      11.50641000      15.48458000      -0.00693700      -0.00106000      -0.00216900
O       15.89259000      11.21192000      12.33879000       0.00757500      -0.00254100       0.01468800
O       11.07675000      12.74303000      18.38194000       0.00299300      -0.00199300      -0.01305200
O       14.56062000      18.43088000      15.31414000       0.01301600       0.00470600      -0.00248200
O       18.86165000      13.22564000      18.48588000       0.00492500      -0.00540500       0.01847700
O       14.83227000      14.07751000      15.71336000      -0.00365200      -0.00637500      -0.00058600
O       11.01598000      13.53607000      11.58419000       0.00921600       0.00704600      -0.01084000
O       14.91911000       9.27570000      14.44575000       0.00334300       0.02533600       0.01281300
O       18.64683000      13.31895000      11.93471000       0.00088400      -0.01160400      -0.00074700
O       12.02918000      15.95623000      18.92775000       0.00230300      -0.00771300       0.00013600
O       14.79589000      20.98002000      15.21626000      -0.00035600       0.00285000       0.00056500
O       19.19338000      16.76845000      18.17292000      -0.02338100       0.00057400      -0.01596600
O       15.48974000      16.21445000      14.66547000       0.01972100      -0.00726800       0.00367900
O       11.34807000      16.65490000      11.49426000      -0.00067300      -0.00141100       0.00327400
O       14.85700000      11.89895000      14.63957000       0.00605100      -0.00349400      -0.00724200
O       18.63930000      16.81814000      11.58073000      -0.00910100      -0.00158900       0.00502500
O        9.81945000      16.85101000      17.03169000       0.02095600      -0.00493400       0.00722300
O       17.45907000      16.22654000      16.21005000      -0.00064800      -0.00307600      -0.01267600
O       13.23392000      16.46299000      13.15069000      -0.00239600       0.00299000       0.00699700
O       16.77005000      11.04743000      16.50128000      -0.00146700      -0.00335400      -0.00037400
O       12.91975000      11.37249000      12.94990000       0.01693600      -0.00135400      -0.02050200
O       20.95998000      16.39444000      13.19209000       0.00140800       0.00182900       0.00677400
O        8.96399000      14.03201000      16.52276000      -0.00816600      -0.00363500      -0.00590000
O       16.73608000      18.71871000      16.82475000       0.00222500      -0.00996200      -0.01237800
O       12.00915000      19.24516000      13.85386000      -0.01132100       0.00328300       0.00551200
O       16.86349000      13.65751000      16.91402000      -0.00446000       0.01564600       0.00346200
O       12.90261000      13.94342000      13.47316000       0.02249200       0.00161600       0.00387200
O       20.86402000      13.36601000      13.73936000       0.00078700       0.00612100      -0.00743300
