72
Lattice="30.0 0.0 0.0 0.0 30.0 0.0 0.0 0.0 30.0" Properties=species:S:1:pos:R:3:forces:R:3 energy=-655.36557404 stress="-8.11352 0.07953 0.03795 0.07953 -7.45349 -0.00721 0.03795 -0.00721 -8.10109" pbc="T T T"
Zr      15.64343000      16.95965000      16.96239000       0.01256400       0.00408400      -0.02053300
Zr      11.20876000      17.46230000      13.29817000       0.00340700      -0.00587300       0.00852800
Zr      15.10420000      12.29508000      16.83139000       0.00604400      -0.01226400       0.00801300
Zr      11.30958000      12.59785000      13.32618000      -0.02721200       0.01697700       0.00656400
Zr      19.31967000      17.44496000      13.29695000      -0.02034800       0.00500500      -0.01966700
Zr      19.29444000      11.97476000      13.53289000      -0.00116100       0.01093300       0.01476300
Zr      11.74319000      17.15337000      17.36576000      -0.01358700       0.01244200      -0.00171900
Zr      10.52600000      12.84980000      16.44736000       0.00887000      -0.00967000      -0.00652400
Zr      18.71732000      17.80997000      16.57472000       0.01294800      -0.00808300       0.03797600
Zr      15.14807000      17.18223000      12.89962000      -0.00178200      -0.02480600      -0.01488500
Zr      18.51748000      12.24853000      16.69412000      -0.01499500      -0.02008600      -0.00473800
Zr      14.66757000      12.69502000      12.54348000      -0.01830200       0.00411100      -0.01264600
Zr      12.54116000      14.04221000      18.50574000      -0.02628500      -0.00794800      -0.00858900
Zr       9.57801000      15.68960000      15.44859000       0.02538500      -0.00346500      -0.01657400
Zr      16.22205000      19.60376000      14.91361000       0.01187400      -0.01692800      -0.00593800
Zr      16.86256000      14.50049000      14.99897000      -0.00327100      -0.01309900       0.00174600
Zr      12.41984000      14.90148000      11.59961000       0.01905600      -0.00504600      -0.00066100
Zr      16.50417000      10.54746000      14.15250000       0.00407300      -0.00809800       0.00530200
Zr      13.14561000      19.78820000      15.39875000      -0.00822900      -0.00056300       0.00467400
Zr      18.13834000      15.01721000      18.00467000       0.01767500       0.05698600       0.00236300
Zr      13.43893000      15.33445000      15.05867000      -0.02526400      -0.00325800      -0.05772400
Zr      13.39723000      10.46216000      14.81624000      -0.00446500      -0.01923400      -0.00718600
Zr      20.42472000      15.00377000      14.58735000       0.00235200      -0.00429600      -0.01678600
Zr      17.69100000      15.01512000      11.86284000      -0.01425200       0.00067800      -0.01833700
O       13.67665000      16.41560000      16.83804000       0.00356000       0.01149900       0.00705400
O        9.37702000      16.91901000      13.86418000      -0.00602700       0.00035700       0.00665800
O       13.59650000      10.94808000      16.69385000      -0.01223000      -0.00772100       0.01228600
O       18.41544000      15.52630000      13.77770000      -0.00373500       0.00460800       0.01800100
O       18.33618000      10.22717000      13.41073000      -0.01558200       0.00786300       0.01513400
O       12.30116000      19.08422000      17.05505000       0.00796100      -0.00930100      -0.00730700
O       12.16038000      14.16311000      16.50609000      -0.00561900       0.01004100      -0.00243600
O       15.90010000      19.00556000      13.05458000       0.01625000       0.02309800       0.00985700
O       19.17181000      14.30341000      16.09694000      -0.00845700       0.01143700       0.00550000
O       16.11142000      14.12476000      13.05787000       0.00455900       0.00542700       0.01741900
O       14.29401000      13.16224000      18.47482000       0.00537900       0.00334400      -0.00510100
O       10.43068000      13.96874000      14.49256000       0.00502100       0.01064600       0.00291800
O       18.28952000      18.87634000      14.59759000      -0.00413400       0.00433800       0.01622000
O       17.65036000      12.59334000      14.55839000      -0.00350400       0.00007300      -0.00367500
O       13.96763000      13.82716000      10.98873000       0.00659700      -0.01060400       0.00360200
O       16.32769000      16.02623000      18.50620000      -0.01352700      -0.00486100      -0.01293400
O       11.59573000      16.46097000      15.19554000      -0.01255800       0.01958500       0.00418800
O       11.14495000      11.39013000      15.05724000       0.00771800      -0.00167400      -0.00530200
O       20.05376000      17.04472000      15.40952000       0.00840900      -0.00218000      -0.00346800
O       15.96482000      16.25161000      11.47449000      -0.02857700      -0.00426200       0.02316600
O       19.84776000      11.50661000      15.48519000      -0.00888200      -0.00036300      -0.00151300
O       15.89305000      11.21178000      12.33902000       0.01196200      -0.00979600       0.01828000
O       11.07625000      12.74243000      18.38146000       0.00883300       0.00313300      -0.01187600
O       14.56106000      18.43103000      15.31336000       0.02048800       0.00585600      -0.00418800
O       18.86146000      13.22615000      18.48574000       0.00839200      -0.01255900       0.02558200
O       14.83189000      14.07703000      15.71312000       0.00339900      -0.01351800       0.00669300
O       11.01674000      13.53643000      11.58379000       0.00603800       0.00401700      -0.00993700
O       14.91881000       9.27528000      14.44636000       0.00703700       0.03018100       0.01114600
O       18.64659000      13.31923000      11.93557000       0.00334700      -0.01662100      -0.00057800
O       12.02897000      15.95602000      18.92750000       0.00590800      -0.01152300       0.00280000
O       14.79581000      20.98053000      15.21680000       0.00133700       0.00437600       0.00100300
O       19.19350000      16.76886000      18.17229000      -0.02631600      -0.00366900      -0.01740700
O       15.48986000      16.21400000      14.66594000       0.01849900      -0.00429500       0.00513300
O       11.34860000      16.65495000      11.49456000      -0.00076300      -0.00279300      -0.00118300
O       14.85696000      11.89867000      14.63978000       0.00701500      -0.00565300      -0.00797400
O       18.63879000      16.81795000      11.58014000      -0.00739200      -0.00145700       0.00939800
O        9.81938000      16.85057000      17.03188000       0.02286600      -0.00077600       0.01332400
O       17.45942000      16.22681000      16.20944000      -0.00173800      -0.00486200      -0.01096700
O       13.23394000      16.46297000      13.15140000      -0.00049000       0.00268900       0.00825000
O       16.76995000      11.04740000      16.50187000      -0.00183300      -0.00327800      -0.00026800
O       12.91977000      11.37232000      12.94930000       0.01844400      -0.00509100      -0.01578300
O       20.95936000      16.39399000      13.19160000       0.00532200       0.00120100       0.00503300
O        8.96377000      14.03167000      16.52183000      -0.01384300      -0.00310500      -0.00129100
O       16.73639000      18.71894000      16.82428000      -0.00109400      -0.00561700      -0.01586500
O       12.00936000      19.24486000      13.85402000      -0.00583800       0.00907700       0.01147000
O       16.86300000      13.65751000      16.91430000      -0.00026000       0.01739100       0.00415900
O       12.90302000      13.94293000      13.47306000       0.02174400       0.00321600       0.00599100
O       20.86422000      13.36600000      13.73986000       0.00121700       0.00362600      -0.00863100
