72
Lattice="30.0 0.0 0.0 0.0 30.0 0.0 0.0 0.0 30.0" Properties=species:S:1:pos:R:3:forces:R:3 energy=-655.36739728 stress="-8.14177 0.12109 0.07146 0.12109 -7.42126 -0.03361 0.07146 -0.03361 -7.78831" pbc="T T T"
Zr      15.64438000      16.96210000      16.95448000      -0.00119600      -0.02381600      -0.00140700
Zr      11.20945000      17.46217000      13.29964000      -0.01146200       0.00064500      -0.00781300
Zr      15.10373000      12.29296000      16.83252000      -0.02252100      -0.00887400      -0.00036000
Zr      11.30962000      12.59883000      13.32417000       0.01258900      -0.00405800      -0.01438200
Zr      19.31659000      17.44494000      13.29272000      -0.00199200      -0.01279400       0.00248900
Zr      19.29409000      11.97494000      13.53701000       0.00541100       0.00319400       0.00328600
Zr      11.74334000      17.15345000      17.36681000       0.01427800      -0.01130900       0.00265700
Zr      10.52458000      12.84740000      16.44447000      -0.01293400       0.01097800      -0.00359000
Zr      18.71953000      17.81186000      16.57212000      -0.00598100      -0.00650900      -0.00706100
Zr      15.14651000      17.18788000      12.90740000       0.00184100       0.01557700       0.00467800
Zr      18.51390000      12.24861000      16.69702000       0.02115300       0.01370200       0.01326200
Zr      14.66794000      12.69216000      12.54375000       0.00379300      -0.01531100       0.00379200
Zr      12.53785000      14.03935000      18.50454000       0.01045800       0.00465100      -0.00062400
Zr       9.58068000      15.68960000      15.44759000      -0.01283900      -0.00750000       0.02294300
Zr      16.22589000      19.60896000      14.91271000       0.00214200       0.01226900       0.00720400
Zr      16.86214000      14.49902000      15.00067000      -0.00221900      -0.00339200      -0.00822900
Zr      12.42592000      14.90208000      11.60077000       0.00086300       0.00281800      -0.01688000
Zr      16.50461000      10.54644000      14.15488000       0.00691000      -0.00154400       0.01077500
Zr      13.14770000      19.78766000      15.40071000       0.01181700       0.00619500      -0.00998600
Zr      18.13969000      15.02142000      18.00295000      -0.01602900      -0.02882300       0.00667800
Zr      13.43651000      15.33107000      15.05755000       0.00755900       0.00050200       0.01217100
Zr      13.39617000      10.46044000      14.81553000       0.00559300       0.00948900      -0.00419600
Zr      20.42396000      15.00463000      14.58530000      -0.01199700      -0.01809700      -0.00414900
Zr      17.68595000      15.01332000      11.86311000       0.00316400       0.00282800       0.01673200
O       13.67648000      16.41769000      16.83388000      -0.00334900       0.00805700       0.00272300
O        9.37634000      16.91968000      13.86534000       0.00504700       0.00293400      -0.00216700
O       13.59479000      10.94538000      16.69394000      -0.00646600       0.00417600       0.00085500
O       18.41214000      15.52779000      13.77754000       0.01009800       0.00258200       0.00048400
O       18.33685000      10.22732000      13.41508000      -0.00222800      -0.00707500       0.00665900
O       12.30600000      19.08274000      17.05690000       0.00224300       0.00566000      -0.00334000
O       12.15746000      14.16300000      16.50533000      -0.00397800       0.01134300      -0.01133800
O       15.90432000      19.01223000      13.05539000       0.00320100      -0.00911400      -0.01319000
O       19.17156000      14.30442000      16.09746000      -0.01292400       0.00667200      -0.00737500
O       16.10972000      14.12382000      13.06045000       0.00524200      -0.00407900      -0.00056800
O       14.29149000      13.16096000      18.47431000      -0.00114900       0.00022900      -0.00182500
O       10.43298000      13.97028000      14.49077000       0.01395600      -0.00007500      -0.01456000
O       18.29077000      18.87860000      14.59708000       0.00630800       0.00230200      -0.00423200
O       17.64757000      12.59217000      14.55897000       0.00406700      -0.00132300       0.01886500
O       13.97168000      13.82453000      10.98957000       0.00112600       0.00291300      -0.01345300
O       16.32575000      16.02661000      18.49925000      -0.00059000       0.00646000      -0.00922700
O       11.59417000      16.46316000      15.19646000       0.01117500       0.00450300      -0.00532800
O       11.14444000      11.39004000      15.05406000       0.00501000      -0.00591100      -0.01375200
O       20.05610000      17.04764000      15.40624000       0.00194100      -0.00543300       0.00425800
O       15.95879000      16.25352000      11.48324000      -0.03025200       0.00211600       0.01409900
O       19.84559000      11.50761000      15.48820000      -0.00956200       0.00251000       0.00855000
O       15.89661000      11.20995000      12.34247000       0.00028300      -0.00526100      -0.00511400
O       11.07425000      12.73929000      18.37750000      -0.00810200      -0.01208400       0.00043700
O       14.56599000      18.43259000      15.30866000       0.00949600      -0.00126000      -0.01061100
O       18.86116000      13.22763000      18.48772000      -0.00800900       0.00736000      -0.00250100
O       14.82980000      14.07315000      15.71274000      -0.00828100       0.00924100       0.00041500
O       11.02131000      13.53855000      11.58095000       0.01036300       0.00265500       0.00845500
O       14.91835000       9.27606000      14.45074000       0.01070200      -0.01336200      -0.00280400
O       18.64537000      13.31936000      11.93971000      -0.00809400       0.00205100      -0.00950500
O       12.02870000      15.95324000      18.92666000       0.00938100      -0.00843900       0.00398400
O       14.79554000      20.98348000      15.21982000       0.00049100      -0.01357500       0.00175100
O       19.19206000      16.77058000      18.16878000       0.01269300       0.01467900       0.02582500
O       15.49194000      16.21171000      14.66832000      -0.01348600       0.00846700       0.00220600
O       11.35157000      16.65430000      11.49577000       0.00450500      -0.00105800       0.00779800
O       14.85713000      11.89610000      14.64008000      -0.00881900      -0.00153400       0.00110800
O       18.63467000      16.81639000      11.57755000      -0.01258200      -0.00634900       0.00477700
O        9.82089000      16.84813000      17.03455000       0.00417700      -0.00312200      -0.00105200
O       17.46164000      16.22798000      16.20559000       0.01272200       0.01039000       0.00343700
O       13.23399000      16.46297000      13.15589000      -0.00242500       0.00249600       0.00194000
O       16.76926000      11.04654000      16.50498000      -0.00428700      -0.00422200       0.00445200
O       12.92118000      11.37114000      12.94500000      -0.00967100       0.00357000       0.01302700
O       20.95660000      16.39231000      13.18908000      -0.00669400       0.02031300      -0.01780900
O        8.96119000      14.02940000      16.51684000       0.01123700      -0.00693900      -0.00779100
O       16.73814000      18.71988000      16.82011000       0.00619400       0.01136200      -0.00314300
O       12.00988000      19.24445000      13.85658000      -0.00242200       0.00925100       0.00850700
O       16.86111000      13.65938000      16.91644000       0.00562100      -0.00453000      -0.00456300
O       12.90701000      13.94052000      13.47293000      -0.00541300      -0.00029600      -0.00590300
O       20.86574000      13.36547000      13.74085000      -0.00689600       0.00992900      -0.00145100
