72
Lattice="30.0 0.0 0.0 0.0 30.0 0.0 0.0 0.0 30.0" Properties=species:S:1:pos:R:3:forces:R:3 energy=-655.37058737 stress="-8.00087 -0.10738 0.01304 -0.10738 -7.37943 0.05553 0.01304 0.05553 -7.69422" pbc="T T T"
Zr      15.64597000      16.96514000      16.93888000      -0.00492400      -0.00800000       0.02399300
Zr      11.20834000      17.46324000      13.30131000       0.00572800      -0.00325500      -0.00330600
Zr      15.09923000      12.28922000      16.83348000      -0.01480900      -0.01399500      -0.00251000
Zr      11.31490000      12.60066000      13.31631000       0.00280200      -0.00768100      -0.00230100
Zr      19.30979000      17.44353000      13.28617000      -0.00580100      -0.00362000       0.00270500
Zr      19.29329000      11.97508000      13.54434000      -0.00142000      -0.01670700       0.01276600
Zr      11.74882000      17.15093000      17.36946000      -0.00950400       0.00920500      -0.01231600
Zr      10.52249000      12.84428000      16.43543000      -0.00157100      -0.00197500       0.00345600
Zr      18.72379000      17.81334000      16.56797000      -0.00412700       0.00419100       0.00364700
Zr      15.14010000      17.20479000      12.92501000       0.00228700       0.01728500       0.01836600
Zr      18.51070000      12.25162000      16.70485000       0.01326200      -0.00904200      -0.00270200
Zr      14.67179000      12.68383000      12.54084000      -0.01768300      -0.01022900       0.00510000
Zr      12.53173000      14.03155000      18.50326000      -0.01096000      -0.00309200       0.00860300
Zr       9.58292000      15.68941000      15.44948000       0.00807800       0.00613300       0.00953600
Zr      16.23603000      19.62246000      14.91053000      -0.01197300       0.00173200      -0.00077600
Zr      16.85934000      14.49474000      15.00318000       0.00243200       0.01532400      -0.00689500
Zr      12.44025000      14.90510000      11.59957000      -0.00027500       0.01038200      -0.00997400
Zr      16.50707000      10.54353000      14.16360000      -0.00064900      -0.01346500      -0.00492700
Zr      13.15323000      19.78695000      15.40135000       0.00209600       0.00542700      -0.00939200
Zr      18.13709000      15.02752000      18.00118000      -0.00763200       0.00780400       0.00313100
Zr      13.43275000      15.32591000      15.05836000      -0.00718200       0.01332000       0.00038200
Zr      13.39625000      10.45682000      14.81397000      -0.00273700       0.00168100       0.00316500
Zr      20.41774000      15.00667000      14.58059000      -0.00697800       0.01337400       0.01472500
Zr      17.67410000      15.01068000      11.86692000      -0.00551200       0.01646300       0.00752000
O       13.67698000      16.42275000      16.82784000       0.00803900       0.00212300       0.00482800
O        9.37616000      16.92053000      13.86849000      -0.00407100      -0.00122300      -0.00286600
O       13.58774000      10.94300000      16.69323000       0.00800300       0.01603200      -0.00459600
O       18.40884000      15.52753000      13.77771000      -0.01039700      -0.00482900      -0.00691800
O       18.34034000      10.22432000      13.42566000       0.00161300       0.00832000       0.00264300
O       12.31601000      19.08081000      17.05868000       0.00554700      -0.00125000      -0.00840800
O       12.15091000      14.16620000      16.50414000       0.01338800       0.00032300       0.00975400
O       15.91640000      19.02566000      13.05363000       0.00155800      -0.00601100      -0.00320100
O       19.16706000      14.30536000      16.09542000      -0.00039600      -0.00588800      -0.00241300
O       16.10795000      14.11612000      13.06551000       0.00695700      -0.00392800       0.00396100
O       14.28628000      13.15779000      18.47381000      -0.00419000      -0.00370000       0.00961000
O       10.44052000      13.97339000      14.48404000       0.00531700      -0.00547000      -0.00445100
O       18.29765000      18.88386000      14.59287000       0.00507800       0.00280000       0.00750000
O       17.64523000      12.58790000      14.56703000      -0.00000700      -0.00405600      -0.00952600
O       13.98128000      13.81876000      10.98595000      -0.00016800      -0.00017000      -0.00405400
O       16.32290000      16.02880000      18.48690000      -0.00421000       0.01315300       0.00116500
O       11.59487000      16.46713000      15.19793000      -0.00469900      -0.00656000       0.00216400
O       11.14482000      11.38872000      15.04489000      -0.00369200       0.00876300      -0.00882500
O       20.06041000      17.04828000      15.40255000       0.00109200      -0.00932400       0.00207400
O       15.93820000      16.25615000      11.50499000      -0.00064400      -0.00402100       0.00653400
O       19.84266000      11.51020000      15.49698000       0.00822000       0.00372800      -0.00881500
O       15.90296000      11.20280000      12.34768000       0.00394700      -0.00963600      -0.00365300
O       11.06796000      12.73040000      18.36863000       0.00319100       0.00232800       0.00406700
O       14.57709000      18.43514000      15.29291000      -0.00492100       0.00967800      -0.01550900
O       18.85778000      13.23498000      18.49168000      -0.00292600       0.00180700      -0.00366400
O       14.82498000      14.06916000      15.71475000       0.00654100      -0.00667500       0.00798100
O       11.03329000      13.54478000      11.57438000       0.00542500      -0.00307900       0.00602500
O       14.92049000       9.27172000      14.45672000       0.01022000       0.00155700      -0.00426900
O       18.63940000      13.32133000      11.94555000       0.00233200      -0.01234400       0.00206400
O       12.03328000      15.94676000      18.92639000       0.01089500      -0.00999700       0.01106900
O       14.79712000      20.98780000      15.22591000       0.00166800      -0.00744300      -0.00080000
O       19.19125000      16.77728000      18.17062000      -0.00348900       0.00103800      -0.00546200
O       15.48916000      16.20826000      14.67621000       0.00225800      -0.00626000      -0.01603800
O       11.35779000      16.65487000      11.49882000       0.00263400      -0.00055400      -0.00439100
O       14.85502000      11.89220000      14.64149000       0.01309300      -0.00355500      -0.00576900
O       18.61987000      16.81224000      11.57453000      -0.01335000       0.00959900      -0.00244600
O        9.82533000      16.84250000      17.03995000       0.00129000      -0.00286700      -0.00377100
O       17.46782000      16.23083000      16.19990000      -0.00883300      -0.00024300       0.00082700
O       13.23245000      16.46492000      13.16401000      -0.00578200       0.00393100      -0.00135500
O       16.76539000      11.04506000      16.51317000       0.00628600       0.00169100      -0.00076000
O       12.92311000      11.36707000      12.94219000       0.00090600       0.00577900      -0.00130500
O       20.94833000      16.39366000      13.17763000      -0.00241100      -0.00745300       0.00529200
O        8.95821000      14.02377000      16.50489000      -0.00347400       0.00290400      -0.00139900
O       16.74185000      18.72385000      16.81217000       0.00602500       0.00871800      -0.00445000
O       12.00948000      19.24637000      13.86124000       0.00666900       0.00370500      -0.00640400
O       16.85781000      13.65921000      16.91809000      -0.00105100       0.00255600       0.00647100
O       12.91439000      13.93775000      13.46785000       0.00920200       0.00130300      -0.00310700
O       20.86421000      13.36611000      13.74252000      -0.00162800      -0.01656100      -0.00740200
