72
Lattice="30.0 0.0 0.0 0.0 30.0 0.0 0.0 0.0 30.0" Properties=species:S:1:pos:R:3:forces:R:3 energy=-655.37222376 stress="-7.94616 0.03158 -0.08526 0.03158 -7.70688 0.03865 -0.08526 0.03865 -7.75182" pbc="T T T"
Zr      15.64697000      16.96899000      16.93973000       0.00020300       0.00743300       0.00549400
Zr      11.20947000      17.46290000      13.29953000       0.00391400      -0.00569300      -0.00025500
Zr      15.09767000      12.28715000      16.83622000       0.00181900       0.00347500      -0.00076500
Zr      11.32049000      12.60377000      13.31261000      -0.01264900       0.01088500      -0.00711200
Zr      19.30201000      17.44227000      13.28393000       0.00893000       0.00573900       0.01066100
Zr      19.29301000      11.97256000      13.54849000       0.00766100       0.00447400      -0.00059500
Zr      11.75172000      17.14954000      17.37018000      -0.00343100      -0.01454900       0.00156600
Zr      10.52342000      12.84250000      16.43096000      -0.00300900       0.00456100       0.00134200
Zr      18.72548000      17.81557000      16.56455000      -0.00551900      -0.00060900       0.00450900
Zr      15.13316000      17.22067000      12.93869000       0.00255500       0.00552500       0.00596200
Zr      18.51099000      12.25215000      16.70772000      -0.01179400       0.01227800       0.00357500
Zr      14.67329000      12.67638000      12.53738000      -0.00547600       0.00886100      -0.00241300
Zr      12.52702000      14.02451000      18.50841000       0.00059600       0.00680200       0.00181700
Zr       9.58566000      15.69012000      15.45015000       0.00285000      -0.00653600      -0.00888200
Zr      16.24026000      19.63073000      14.90830000       0.00302100       0.00162900       0.00138600
Zr      16.85666000      14.49218000      15.00419000       0.00347200       0.01054000       0.00282900
Zr      12.45029000      14.90921000      11.59674000       0.00339500      -0.00612800       0.00212000
Zr      16.50879000      10.53892000      14.16509000      -0.00708500      -0.00054400      -0.00728000
Zr      13.15558000      19.78812000      15.39648000       0.00211300      -0.00661500      -0.01074800
Zr      18.13430000      15.03092000      18.00116000       0.00391300       0.00549800      -0.00241700
Zr      13.43217000      15.32345000      15.05974000      -0.00080500       0.00372600       0.00938700
Zr      13.39798000      10.45545000      14.81173000       0.00220600       0.00215800      -0.00343800
Zr      20.41275000      15.00550000      14.57848000      -0.00348100       0.01218300      -0.00378700
Zr      17.66448000      15.00971000      11.86973000      -0.00162600       0.00556200       0.00658100
O       13.67938000      16.42871000      16.82435000       0.00298300      -0.00235000      -0.00354200
O        9.37738000      16.91960000      13.86862000      -0.00060400       0.00124200      -0.00488200
O       13.58291000      10.94669000      16.69039000       0.00059300      -0.00126000      -0.00160600
O       18.40290000      15.52777000      13.77773000      -0.00917300      -0.01007200      -0.00229900
O       18.34430000      10.21985000      13.43224000      -0.00316400       0.00445200      -0.00304200
O       12.32395000      19.07816000      17.05365000      -0.00470900       0.00140400       0.00217300
O       12.15140000      14.16625000      16.50886000       0.00815000       0.00035900       0.00215100
O       15.92927000      19.03645000      13.05043000       0.00515300      -0.00357900      -0.00150400
O       19.16237000      14.30494000      16.09363000      -0.00237000      -0.00071400       0.00267000
O       16.10785000      14.10670000      13.06846000       0.00383700      -0.00394300      -0.00064900
O       14.28150000      13.15182000      18.47873000       0.00853000      -0.00668000      -0.00019600
O       10.44808000      13.97595000      14.48171000       0.00917500      -0.00115500      -0.00114200
O       18.30423000      18.88809000      14.59482000      -0.00268800       0.00008000      -0.00030100
O       17.64500000      12.58374000      14.57053000      -0.00430500       0.00156400      -0.00329300
O       13.98687000      13.81417000      10.98252000      -0.00209400       0.00296700      -0.00004200
O       16.32036000      16.03608000      18.48885000       0.00959500      -0.00484700       0.00157400
O       11.59518000      16.46713000      15.20057000      -0.00173400       0.00229400       0.00165200
O       11.14364000      11.39006000      15.03753000       0.00567600      -0.00069600       0.00289600
O       20.06057000      17.04344000      15.40302000      -0.00124400       0.00103300      -0.00381200
O       15.92329000      16.25664000      11.52550000      -0.00105100      -0.00182400      -0.00682600
O       19.84491000      11.51277000      15.50154000       0.00841000      -0.00577800      -0.01115400
O       15.90548000      11.19405000      12.34783000       0.00674700      -0.00928900       0.00289100
O       11.06222000      12.72481000      18.36568000       0.00079800       0.00184500       0.00767300
O       14.58127000      18.43687000      15.27279000      -0.00282600       0.00573000      -0.01069000
O       18.85659000      13.23967000      18.49303000       0.00212300       0.00605400      -0.00204600
O       14.82201000      14.06495000      15.71819000       0.00089500      -0.00229300      -0.00040500
O       11.04308000      13.54962000      11.56995000       0.00026900       0.00023400       0.01476200
O       14.92185000       9.26786000      14.45946000      -0.00276700       0.00589200       0.00177900
O       18.63360000      13.32172000      11.94989000       0.00551400       0.00038800       0.00415000
O       12.04016000      15.94333000      18.92761000      -0.00203300       0.00193000      -0.01073100
O       14.79805000      20.99118000      15.22886000      -0.00726100      -0.00396400      -0.00036500
O       19.18818000      16.78112000      18.16951000       0.00251200      -0.00836200       0.00509500
O       15.48693000      16.20302000      14.67554000      -0.00489800      -0.00630400      -0.00053100
O       11.36133000      16.65640000      11.49646000       0.00255300       0.00078400      -0.00143700
O       14.85875000      11.88819000      14.64061000      -0.00127800      -0.00423100      -0.00267500
O       18.60307000      16.81656000      11.57483000       0.00087400      -0.00202700      -0.00313600
O        9.82759000      16.83952000      17.04316000       0.00393600       0.00842900       0.00625000
O       17.46596000      16.23367000      16.19925000      -0.00885700      -0.01221000       0.00076600
O       13.22771000      16.46863000      13.16933000       0.00291400      -0.00428500      -0.00517700
O       16.76600000      11.04541000      16.51873000      -0.00643900      -0.00207300       0.00466500
O       12.92570000      11.36495000      12.93916000       0.00206900      -0.00010300       0.00520700
O       20.93946000      16.39110000      13.17279000      -0.00650100       0.00095500      -0.00461500
O        8.95788000      14.02091000      16.49688000      -0.00066000       0.00024000       0.00504300
O       16.74191000      18.72867000      16.80683000      -0.00777600      -0.00094600       0.00876600
O       12.01161000      19.24783000      13.85669000       0.00110600       0.00072100      -0.00575400
O       16.85557000      13.66099000      16.92083000      -0.00369700      -0.00518100       0.00695800
O       12.92273000      13.93737000      13.46409000       0.00427800      -0.00039400      -0.00020000
O       20.86314000      13.36433000      13.74232000      -0.00233400      -0.01469000      -0.00460700
