107
Lattice="30.0 0.0 0.0 0.0 30.0 0.0 0.0 0.0 30.0" Properties=species:S:1:pos:R:3:forces:R:3 energy=-732.81466317 stress="-42.61097 0.56218 -24.07793 0.56218 -77.50224 2.65625 -24.07793 2.65625 0.52934" pbc="T T T"
Zr      12.95492000      12.65772000      14.52873000      -0.03732900      -0.08974000       1.23332800
Zr      16.43024000      12.35374000      18.66915000       0.22342000       0.06595700       1.38736200
Zr      13.21028000      17.95625000      14.68774000       0.78809100      -0.61447000       0.42233700
Zr      16.71807000      17.63561000      18.80944000       1.61356800       0.11771500       0.32081800
Zr      16.57026000      12.63184000      10.68136000      -0.14242900       1.68055200       0.76408900
Zr      16.83349000      17.77876000      10.72652000       0.41110000      -0.57972500       0.10965900
Zr      13.15585000      12.15891000      19.28631000      -0.74458500       0.95129200      -1.43164300
Zr      13.46048000      17.44925000      19.40725000      -0.40612100      -0.37360800       0.38841000
Zr      13.16437000      12.37288000      11.16600000       0.92861500      -0.55074900       0.25870000
Zr      16.79205000      12.04262000      15.31089000      -0.90894400       0.66112000      -0.35940800
Zr      13.56571000      17.64254000      11.32907000      -0.34871700      -0.19467000      -1.40572000
Zr      17.03859000      17.34139000      15.48171000       0.09563700       0.21178900      -1.38469500
Zr      11.63911000      15.30300000      17.24623000      -0.61238300       0.73929500       0.05071500
Zr      15.00739000      14.93053000      21.42194000      -0.85746400      -0.96214900      -0.08758300
Zr      14.91077000       9.89064000      13.23378000       0.43990000      -0.18223100      -1.39439800
Zr      15.16468000      15.24821000      13.34127000      -1.71884400      -0.42932200      -0.46786600
Zr      18.53739000      14.89804000      17.47630000      -1.07088100      -0.63150400      -1.13437700
Zr      15.49935000      20.50090000      13.52609000      -1.26261700      -0.65815200      -1.05002200
Zr      14.49872000       9.49430000      16.47312000       1.47398300       0.55436600       0.83655700
Zr      11.45596000      15.11484000      12.53943000       0.98322000       0.84265500       1.26664400
Zr      14.84700000      14.77170000      16.66017000       1.87036400      -0.18267100       0.12152500
Zr      15.08791000      20.08775000      16.78523000      -0.36008700       0.25884500       1.26188200
Zr      15.01054000      15.09726000       8.55881000       0.37216400       0.68465200       0.25166000
Zr      18.35708000      14.70587000      12.74357000       0.66398400      -0.47277300      -0.26085500
O       12.63624000       8.96981000      15.65548000       0.54894600       0.27738100      -0.22525400
O       12.86299000      14.25415000      15.92285000      -0.28049500      -0.56970100      -0.25738800
O       16.17747000      13.92514000      20.03869000       0.57564000      -0.14465000       0.00187400
O       13.15667000      19.40509000      16.00449000       0.40640400       0.90680500       0.47948600
O       16.47620000      19.09970000      20.15294000       0.01787400       0.10537400       0.49388700
O       15.94705000       8.87441000      11.83523000      -0.35524600       0.31266600       0.13464400
O       16.26786000      14.16467000      12.10283000       1.41207600      -1.01522100      -0.93483900
O       19.57313000      13.72642000      16.10083000      -0.68416900       0.07468300       0.72835100
O       16.56821000      19.31958000      12.20467000       0.69212200      -1.09547000      -0.65703000
O       13.46510000      10.65072000      17.77986000      -0.56584300       1.09270200       0.83257600
O       10.42686000      16.27297000      13.89567000       0.71293800      -0.14641800      -0.88464500
O       13.74229000      15.80411000      17.87575000      -1.67014600       1.43224000       1.47983000
O       14.05053000      21.13013000      18.16246000       0.24369500      -0.19142300      -0.14890300
O       16.84454000      10.59334000      14.00202000      -0.31496000      -0.96511700      -0.51734400
O       13.82196000      16.07453000       9.96209000      -0.48241900       0.22655400       0.03057600
O       17.13732000      15.74259000      14.07397000       0.26768400       0.54091000       0.14501600
O       17.36414000      21.03031000      14.34440000      -0.63770600      -0.28301000       0.17602900
O       11.83073000      11.54484000      15.86225000       0.49708900      -0.49713500       0.08870800
O       15.10460000      11.31764000      19.93492000      -0.46520000       0.66129300      -0.47490200
O       12.13192000      16.87247000      15.88954000      -1.18120800      -1.47479600       1.19162600
O       15.47066000      16.60668000      19.99881000      -0.55831300      -0.90394600       1.04099800
O       15.20628000      11.66887000      11.82004000      -0.68343900      -1.46801800       0.53894600
O       18.53003000      11.25210000      16.14017000       0.03863700       0.64192800       0.20253500
O       15.51239000      16.80126000      12.07442000      -0.29460300       0.79592100      -0.45396100
O       18.85124000      16.45154000      16.23504000      -0.27504500      -0.30970500       0.28901100
O       15.81830000      21.96467000      12.25642000      -0.43356600       0.34619200      -0.32749700
O       14.18212000       8.03426000      17.74428000       0.45065000      -0.43307100       0.37882700
O       11.15163000      13.55506000      13.76421000       0.25885600       0.40889900      -0.33063300
O       14.48151000      13.19474000      17.92947000       0.23000200      -0.62008300       0.38463700
O       11.47024000      18.74688000      13.85901000      -0.03530700      -0.69321200      -0.17324500
O       14.76553000      18.34487000      18.11604000       0.72949900       0.67126500      -0.68187200
O       14.49155000      13.29231000      10.02231000       0.95505300       0.55615000      -1.78733700
O       17.86767000      13.12479000      14.11383000       1.27953100       1.48422900      -1.21221100
O       14.89927000      18.68860000      10.06007000       0.56864700      -0.77179900       0.62557200
O       18.16576000      18.45417000      14.13778000      -0.54586300       0.55546800      -0.17915000
O       11.11036000      11.49518000      18.64679000       1.63896800       1.94959500       0.61803700
O       11.34332000      16.67632000      18.79936000       1.06378800       1.60872300       0.89258800
O       14.64983000      16.25078000      22.83090000      -0.11868400       0.09316600       0.13012300
O       11.24530000      11.70368000      10.67654000       0.86521400       1.55450400       0.00038200
O       14.53596000      11.15073000      14.84052000      -0.54109100       0.70768100       0.66014400
O       17.92686000      11.01160000      18.91222000       1.34489500       1.68302900      -0.08295900
O       11.46782000      16.87928000      10.83698000       1.34899400       1.37405000       0.67111300
O       14.84465000      16.29793000      14.97951000      -0.41177800       1.54808600       1.90740700
O       18.22654000      16.14207000      19.07714000       0.92208700       0.87253500       0.33336500
O       15.06798000      21.64662000      15.08423000       0.20076800      -0.01599800       1.76589700
O       17.96402000      11.23740000      10.97101000       0.87766900       1.13240700       0.29400300
O       14.85279000      16.66047000       7.05489000       0.22057800      -1.47528900       1.43434000
O       18.23621000      16.35207000      11.16429000      -0.08938600      -0.62975500       0.90570300
O       11.70048000      13.64595000      18.84421000      -0.31994200      -0.67484500      -0.56311600
O       15.15067000      13.33761000      22.95213000      -0.13926200       1.51375600      -1.41674900
O       12.03399000      18.79795000      19.06452000      -0.56766900      -0.55007900       0.26803300
O       14.93273000       8.35418000      14.91501000      -0.13838600      -0.05563700      -1.90140300
O       11.85976000      13.79007000      10.93566000      -2.42161000       0.49644200      -0.59302300
O       15.15358000      13.70058000      15.01584000       0.29615200      -1.51560400      -1.97744900
O       18.52947000      13.11643000      19.16449000      -1.36190600      -1.47325800      -0.59615300
O       12.08139000      18.99036000      11.08430000      -1.32957000      -1.57013000       0.06457000
O       15.46225000      18.84916000      15.15725000       0.43488400      -0.67891300      -0.74151800
O       18.78816000      18.31060000      19.33590000      -1.78469500      -1.42091300      -0.06309100
O       15.34900000      13.75566000       7.17318000       0.18010600      -0.16375700      -0.08175900
O       18.65361000      13.31286000      11.18669000      -1.12116300      -2.06862800      -1.05864100
O       10.04039000      14.14290000      16.83454000      -1.31383300       2.66901500      -0.32379100
O       13.44314000      13.75459000      20.94231000      -0.07598500       0.03962700      -0.14698500
O       13.80884000      18.95319000      21.03990000      -0.15375700      -0.97404600      -1.52425800
O       13.24972000       8.78231000      12.87400000       0.22569100       0.33992500       0.27979300
O       16.55686000       8.56167000      16.97879000      -1.89743400       0.44184700      -0.15890200
O       13.50388000      13.83373000      12.92154000      -0.02467100       0.18368700      -1.29034600
O       16.82717000      13.57459000      17.06617000       0.86220800       1.00413200      -0.55454400
O       13.78476000      19.08349000      13.10770000       0.96566200       0.92192300      -1.68064000
O       17.21706000      18.92212000      17.25282000      -0.56808000       0.49404200      -1.28691000
O       17.01309000      13.96732000       9.16528000      -0.94643300       0.49803000      -0.66329000
O       20.30667000      13.78407000      13.30033000      -1.27849800       3.61869500      -0.20490800
O       17.28980000      19.10251000       9.37711000      -0.17683900       0.49237800      -0.43262500
O       12.68044000      10.89318000      20.60444000      -0.53301500      -1.41180900       1.19314000
O        9.69645000      16.21121000      16.70261000       1.25723500      -3.71718600       0.22048000
O       12.98209000      16.01914000      20.84502000       0.64259800      -0.97676300       0.70795800
O       12.79317000      11.11885000      12.68638000       0.57484100      -0.85581500       1.52956600
O       16.21455000      10.91601000      16.89546000      -0.90617100      -0.98201100       1.65486000
O       13.17186000      16.41918000      12.93643000      -0.91478900      -1.09485500       0.53841900
O       16.48658000      16.13543000      17.04633000       0.11855000      -0.22929500       1.25322300
O       13.44221000      21.43880000      13.02081000       1.93815900      -0.43318000       0.21098300
O       16.76630000      21.20804000      17.12820000      -0.17862100      -0.71763500      -0.32988400
O       16.54879000      16.25583000       9.04901000       0.34883100       0.55760000       0.21389600
O       19.95248000      15.86854000      13.15567000       1.16992900      -2.46383600       0.23088300
