107
Lattice="30.0 0.0 0.0 0.0 30.0 0.0 0.0 0.0 30.0" Properties=species:S:1:pos:R:3:forces:R:3 energy=-760.1047221 stress="20.7999 -0.19592 23.00643 -0.19592 -56.01728 1.38702 23.00643 1.38702 -18.74689" pbc="T T T"
Zr      12.83543000      12.62919000      14.64170000       0.77600000      -0.21648300       0.27572000
Zr      16.34844000      12.33063000      18.81986000      -3.02348100       0.06302700      -0.75262200
Zr      13.15457000      17.97762000      14.74765000       0.27449000       0.26927600       0.83147600
Zr      16.72445000      17.64811000      18.78884000      -0.71277700       0.25163700       1.15592800
Zr      16.43778000      12.81788000      10.66262000      -2.17742200      -1.36926100      -1.21191100
Zr      16.92863000      17.64875000      10.62236000       0.24966000       0.98173300       0.94509500
Zr      13.17436000      12.26048000      19.35389000       0.59861600      -1.09621600       0.81848800
Zr      13.46347000      17.36990000      19.54914000       2.35699600      -0.12602600      -0.09305500
Zr      13.31547000      12.36204000      11.25534000      -0.48482500       0.20519800      -0.67084400
Zr      16.84310000      12.02441000      15.25079000      -0.26125100      -0.20901900      -0.77841900
Zr      13.62207000      17.64489000      11.17985000       3.12728300       0.07473700       0.46170300
Zr      17.15616000      17.37905000      15.34472000      -0.89704000      -0.15068500      -0.31693100
Zr      11.82419000      15.36597000      17.45316000      -1.67083400      -0.19097800      -2.33464100
Zr      14.90738000      14.84558000      21.40691000       0.47060800       0.50299400      -0.17045900
Zr      14.99245000       9.84849000      13.16137000      -0.50119700       0.97502000      -0.86689800
Zr      15.01358000      15.23966000      13.33205000       0.43232200       0.91549500       0.66955900
Zr      18.46092000      14.84504000      17.37538000      -0.36899900       1.76430600      -0.06446200
Zr      15.44899000      20.43611000      13.45315000       1.68251800      -1.80612800       0.15722900
Zr      14.56785000       9.53459000      16.51177000      -1.79432500       1.68521000      -0.16630600
Zr      11.52336000      15.19302000      12.62897000       0.02849100      -1.73683700       0.26383600
Zr      14.99948000      14.76047000      16.65382000      -0.65766100      -0.19517400       0.02859500
Zr      15.00926000      20.13221000      16.85697000       0.31407700      -1.11348200       0.69378200
Zr      15.09561000      15.16986000       8.60746000      -0.01956100       0.24690700      -0.34809600
Zr      18.22497000      14.70094000      12.51383000       1.81227000       0.47505900       2.53078300
O       12.78886000       9.04895000      15.61117000      -0.18893900       0.02871100      -0.71390500
O       12.83808000      14.25958000      16.01799000       0.11717700      -0.70555100       0.27439800
O       16.28016000      13.99342000      20.13182000       0.48276700      -0.47063300      -0.63265800
O       13.21582000      19.56485000      16.07513000      -0.33146300      -0.79636800      -1.00127100
O       16.47719000      19.15597000      20.29424000      -0.35081200      -0.77408800      -0.43087700
O       15.92557000       8.86450000      11.76561000      -0.07571800      -0.28471000      -0.19170800
O       16.41686000      14.16635000      12.11906000      -2.55423600      -0.62106400      -1.21822800
O       19.44415000      13.71522000      16.24332000       0.47644000      -0.68766400       0.05170600
O       16.68622000      19.22038000      12.20652000       0.56205300      -0.28736400      -0.02965400
O       13.40846000      10.71925000      17.79748000      -0.20055800       0.26448300       0.23610200
O       10.52734000      16.30113000      13.76281000      -0.34649800       0.66362400      -0.16653500
O       13.57833000      15.83808000      17.92167000       2.52964700      -0.15627000       0.85521300
O       14.05807000      21.14789000      18.21044000      -0.00593700       0.19317400       0.23321800
O       16.79907000      10.42754000      13.93204000       0.25612000       0.85066000       0.85516700
O       13.73028000      16.01981000       9.87886000      -0.41983300       0.20793200       0.65180600
O       17.15291000      15.72922000      13.96922000      -0.28284500       0.77013800       0.10857600
O       17.19535000      20.95627000      14.38230000      -0.01128500       0.21295800       0.78631600
O       11.94277000      11.40683000      15.89665000       0.32383300      -0.65992300       0.32254200
O       14.98164000      11.43508000      19.85757000       0.42893900      -0.97985300       1.10859100
O       12.00090000      16.75979000      15.96085000       0.27060300       0.10921600       0.41676500
O       15.45266000      16.60169000      20.05012000       0.44303800      -0.45088900       0.28403200
O       15.11462000      11.58122000      11.70949000       1.39294100      -0.70786700       0.17713800
O       18.50113000      11.43256000      16.17103000       0.30555900       0.39153000       0.45664400
O       15.43423000      16.95338000      11.97857000       0.18368700      -1.86485800       0.97208000
O       18.79211000      16.44550000      16.23252000      -0.12510100      -0.31387800      -0.17194400
O       15.69229000      22.07268000      12.18510000      -2.16073700      -0.64625900       0.92720700
O       14.31183000       7.91645000      17.81798000       2.16599100       0.68956200      -0.99246300
O       11.21028000      13.57256000      13.77185000       0.11328000       0.60577700      -0.09098900
O       14.54591000      13.06907000      18.00919000       0.28414200       1.61541300      -0.96838300
O       11.49787000      18.55931000      13.83265000      -0.33396300      -0.46946800      -0.39177800
O       14.85276000      18.31661000      18.15379000      -0.77420200       0.60431600      -0.05291600
O       14.55978000      13.15443000       9.87154000      -0.26232900       0.74807600      -0.41854400
O       18.00200000      13.22240000      14.06252000      -0.38306100      -0.57452700      -0.02617700
O       15.04547000      18.54735000      10.16913000       0.52657100       0.75144500      -0.77114500
O       18.04134000      18.60188000      14.07498000      -0.41445800       0.61496800      -0.64691100
O       11.29829000      11.96148000      18.72663000      -1.59306200       3.16503100      -0.68513400
O       11.51350000      17.10738000      18.98130000      -1.18506800       2.51857000      -0.21299200
O       14.61362000      16.26351000      22.83630000       0.02147900      -0.31154000      -0.11811100
O       11.36591000      12.11516000      10.66306000      -0.96538500       3.24165500       0.08309500
O       14.56066000      11.12031000      15.01488000       0.42701000       0.72389000      -0.18701800
O       18.31791000      11.42904000      18.91608000       0.71454000      -2.60914600      -0.61559100
O       11.66448000      17.27379000      10.95534000      -2.65503400      -1.02402400      -0.53445800
O       14.88327000      16.31277000      15.25770000      -0.04967000       0.00290500      -1.17372200
O       18.51365000      16.29230000      19.16396000       0.03340400       3.25888600       0.55052000
O       15.16862000      21.58422000      15.33575000       0.97894900      -0.02201000      -0.73113900
O       18.20341000      11.58083000      11.04434000      -1.33753400      -4.44435300      -0.11314800
O       14.87467000      16.52190000       7.17172000      -0.02570700      -0.49094100      -0.01672000
O       18.27649000      16.20216000      11.35556000       0.06071500       1.22118100      -1.02660700
O       11.51293000      13.52238000      18.69758000      -0.67764000      -2.70191300       0.00823300
O       15.14660000      13.50131000      22.82020000       0.21784100       0.16011300       0.48089700
O       11.81543000      18.63361000      19.09735000      -0.84560900      -2.98776200      -0.26389200
O       14.84897000       8.39420000      14.64093000      -0.82605600      -0.18638600       0.54404500
O       11.45029000      13.71722000      10.81035000       0.16540300      -3.26137000      -0.35185200
O       15.10096000      13.68101000      14.71078000       0.04197500       0.03419500       1.06411700
O       18.32261000      12.69741000      19.05411000       2.57142100       3.13208400       0.83698300
O       11.69787000      18.59844000      11.07539000      -0.78009200       0.51407600       0.32653100
O       15.42045000      18.88193000      14.97405000      -0.41376500      -0.89706100       0.12869500
O       18.62324000      17.99907000      19.38246000       1.15378400      -3.18620300      -0.10024500
O       15.39619000      13.73218000       7.18695000       0.18785600       0.36045400       0.45324800
O       18.52306000      12.79752000      10.99257000       2.69724600       4.96222900       0.43995400
O        9.66846000      14.39784000      16.74561000       0.25474000       2.59621900      -0.29570800
O       13.29826000      13.69952000      20.86300000      -0.13371100       0.35032700      -0.01994500
O       13.79915000      18.82078000      20.77869000       0.37929600       0.89415600       0.61691600
O       13.19630000       8.81065000      12.93167000      -0.14382700       1.01492500       0.45527200
O       16.17823000       8.60131000      16.98474000       0.23288900      -2.37451100       1.77750400
O       13.42882000      13.72124000      12.65069000       0.89488000       1.66651000       0.94264700
O       16.81543000      13.60423000      16.91320000      -0.23533800       0.37272800       0.40828000
O       13.82865000      19.07997000      12.82755000      -0.03328100      -0.35102800       0.70007000
O       17.09616000      19.02956000      17.01473000      -0.23789600       0.98143500       0.32948900
O       16.82568000      14.06340000       9.01243000       0.23161600      -1.02163000       0.14837700
O       20.25859000      14.34533000      13.33102000       0.59091300      -2.95582200       0.29934900
O       17.22925000      19.17525000       9.31906000      -0.09874500      -0.19997300       0.26714000
O       12.62714000      10.73956000      20.70070000       0.23596200       0.69711500      -0.65721500
O        9.71482000      15.73570000      16.65980000      -0.38444200      -2.39923100       0.20884900
O       13.10373000      15.79873000      21.01583000      -0.48753500       0.02408100      -0.08075700
O       12.92065000      10.99268000      12.91831000       0.15280300      -0.36728200      -0.21577800
O       16.17926000      10.90541000      17.17127000       0.03589900       0.27098700      -0.72737200
O       13.18786000      16.37216000      13.09057000       0.18919100      -0.45973800      -0.43622900
O       16.57778000      16.21165000      17.28769000      -0.81777000      -1.05060200      -0.74448500
O       13.83723000      21.39577000      13.02777000      -0.11706000       2.34714800      -1.72447800
O       16.85115000      21.08911000      17.06504000       0.63780100      -1.76682400      -0.35972200
O       16.68443000      16.40221000       9.09770000      -0.46843900      -0.35365300      -0.58736500
O       20.30876000      15.57487000      13.22807000       0.21028300       2.84104000       0.05051000
