107
Lattice="30.0 0.0 0.0 0.0 30.0 0.0 0.0 0.0 30.0" Properties=species:S:1:pos:R:3:forces:R:3 energy=-783.99067829 stress="-30.67527 -3.79146 6.7589 -3.79146 -49.78216 7.56753 6.7589 7.56753 -25.95422" pbc="T T T"
Zr      12.95896000      12.54582000      14.74446000      -0.43792500       0.34067900      -0.04645800
Zr      16.26172000      12.36346000      18.73104000       0.15308100      -0.47489700       0.26592100
Zr      13.21086000      17.95671000      14.76281000       0.35302700       0.23121400       0.44214000
Zr      16.72831000      17.71469000      18.91615000      -0.78498800      -0.78035900       1.00056400
Zr      16.43168000      12.77797000      10.57872000      -1.22075100      -0.95926900      -0.20303200
Zr      17.03618000      17.65750000      10.67301000      -0.19664100      -0.53969900       0.44370100
Zr      13.14829000      12.12912000      19.44158000       0.25423900      -0.71440000       0.08020000
Zr      13.56565000      17.34145000      19.65472000       1.06595700       0.11015600      -0.32208900
Zr      13.28422000      12.42979000      11.23006000       0.32002800      -0.65840700      -0.54083500
Zr      16.78465000      12.05772000      15.22044000       0.11879400      -0.24198700      -0.66188300
Zr      13.80256000      17.61713000      11.20815000       0.10447500       0.27801900      -0.26037900
Zr      17.00850000      17.35508000      15.25099000      -0.14917500      -0.98940800      -0.42297800
Zr      11.86294000      15.37598000      17.29461000      -0.19239600       0.72075900      -1.66426800
Zr      14.95345000      14.78784000      21.39991000       0.62246900       0.87241800      -1.34859400
Zr      15.06428000       9.89044000      13.09489000       0.34293800       0.52795800      -0.56639500
Zr      15.00384000      15.22054000      13.35210000       0.57308000       0.50234000      -0.51830400
Zr      18.35989000      14.98171000      17.33030000       0.21564100       1.49724000      -0.33450600
Zr      15.51187000      20.13789000      13.51480000      -1.02943000      -0.84912600      -1.28496500
Zr      14.45226000       9.83093000      16.44995000       0.87422400       0.10541500       0.85794600
Zr      11.59222000      15.08331000      12.64540000      -0.10677900      -1.49533600       0.76514900
Zr      15.00677000      14.75930000      16.67704000      -0.65003100      -0.13331400       0.67281600
Zr      14.82776000      20.10762000      16.92305000      -0.25772200      -0.83580300       0.17488800
Zr      15.05587000      15.26652000       8.65043000       0.01927100       0.56006200       0.50465700
Zr      18.27861000      14.73034000      12.69341000       0.41348700      -0.01574900       0.09934800
O       12.89522000       9.06353000      15.42902000       1.39247600      -1.03406100      -1.22607200
O       12.84124000      14.10973000      16.05140000      -0.09024300       0.59295600       0.66274200
O       16.36205000      13.92488000      20.05828000       0.09843500       0.07658300       0.04449300
O       13.19361000      19.56024000      16.00520000      -0.77096800      -0.50364900      -1.14491600
O       16.41932000      19.07383000      20.28119000      -0.28894900       0.00286500       0.09755300
O       15.86266000       8.82963000      11.75606000       0.05840400      -0.61076400      -0.32521100
O       16.30461000      14.12213000      11.97281000       0.24802400       0.80347500       0.46125200
O       19.39141000      13.50683000      16.36048000      -0.89004100      -2.39742500       0.44937200
O       16.88048000      19.18173000      12.28764000       1.30923400      -0.18949000       1.62672200
O       13.34445000      10.75041000      17.84573000      -0.28791700      -0.26109600       0.28418500
O       10.57364000      16.54098000      13.65954000       1.14662600       2.58869100      -0.45134100
O       13.65306000      15.78062000      18.00012000      -0.12588100      -0.09500800       0.11902500
O       14.11024000      21.15264000      18.21085000      -0.30494800       1.00011600       0.87321500
O       16.80084000      10.44390000      13.98632000       0.40398200       0.69196600       0.88795700
O       13.66200000      16.04373000       9.97109000      -0.15709200      -0.07115100       0.20628800
O       17.13913000      15.83595000      13.95134000      -0.52553600      -0.01750900       0.05725300
O       16.95584000      21.06411000      14.62619000      -1.73962000       1.68413000       1.52087500
O       12.06607000      11.27272000      15.92987000       0.28697800      -0.16218700       0.10729900
O       15.07141000      11.36956000      19.95531000      -0.43515100       0.43698100      -0.42777900
O       12.04251000      16.85414000      15.99245000       0.07177400      -0.80126600       0.74795500
O       15.53555000      16.52600000      20.08842000       0.07076900       0.24716300      -0.34720100
O       15.14416000      11.51698000      11.62633000       0.20603300       0.06598700      -0.03991400
O       18.60932000      11.69469000      16.29441000       1.19689800       2.73377100       0.44865700
O       15.52303000      16.80509000      11.98085000      -0.52173700      -0.54307800       0.17510100
O       18.75115000      16.47939000      16.13601000      -0.26250000      -0.41402600       0.11996000
O       15.25501000      22.05633000      12.23675000      -0.34485200      -0.15519100      -0.18655200
O       14.76955000       7.93009000      17.75639000       0.65094200       0.16641800       0.07065100
O       11.25471000      13.56817000      13.84139000       0.37813200       0.96756400      -0.66239200
O       14.52470000      13.17581000      18.01787000       0.19200100       0.53066100      -0.10113100
O       11.37506000      18.27527000      13.72152000      -1.56651900      -2.87535400      -0.58909300
O       14.79980000      18.32507000      18.14931000       0.49521000       0.12283500       0.04534400
O       14.41412000      13.15939000       9.84090000       0.27567600       0.53788500      -0.24259600
O       17.95571000      13.21958000      13.97035000      -0.69902800      -0.72557000       0.51260800
O       15.16698000      18.63983000      10.11045000       0.09327800       0.21550900       0.46099700
O       17.86999000      18.71883000      13.93743000      -0.83556600       0.06724800      -1.38873600
O       11.04883000      12.17589000      18.67332000       0.06396700       0.47152700       0.03765300
O       11.36936000      17.21857000      18.96760000       0.20644200      -0.01933100       0.00025500
O       14.61763000      16.18764000      22.81823000       0.12794800      -0.30153500       0.08739900
O       11.24144000      12.26752000      10.63082000      -0.01798900       0.50323600       0.06429500
O       14.60814000      11.24954000      14.98269000       0.33167900       0.34460500      -0.15579300
O       18.48812000      11.47379000      18.79390000      -0.00305900       1.46620100      -0.20708000
O       11.43911000      17.22812000      10.90432000       0.34247400       1.84138800       0.44887600
O       14.86450000      16.35582000      15.17282000      -0.17192400      -0.55498000      -0.49443800
O       18.54834000      16.39451000      19.19050000       0.25045900       1.83321900       0.20044500
O       15.52184000      21.44487000      15.15227000       1.93769200      -0.14763600      -0.54148700
O       18.19770000      11.61050000      11.01929000      -0.28737200      -1.17285500      -0.04720700
O       14.86691000      16.44693000       7.14829000      -0.16226900      -0.04532400      -0.26963700
O       18.31926000      16.22517000      11.34158000       0.27973200      -0.01264700      -0.28194900
O       11.39032000      13.47227000      18.62578000      -0.23380900      -0.16668900      -0.04302300
O       15.19086000      13.62156000      22.86763000       0.33352700      -0.32868600       1.38495300
O       11.71591000      18.50789000      19.10906000      -0.09854100      -0.30547100       0.01969300
O       14.58718000       8.45879000      14.73316000      -1.59362200       0.64193600       1.47860400
O       11.43439000      13.65332000      10.80418000       0.01301900       0.00713000       0.26174200
O       15.09695000      13.67393000      14.82396000       0.45997000       0.24399300       0.22807200
O       18.54769000      12.76062000      19.11651000       0.07653100      -1.11449600      -0.33139400
O       11.51816000      18.55026000      11.17700000       0.06731800      -2.19467400       0.06046800
O       15.40688000      18.71804000      14.99585000       0.01673400      -0.02514400       0.23668000
O       18.82242000      17.85137000      19.43978000      -0.50783100      -2.28044600      -0.81644000
O       15.53718000      13.75745000       7.34015000       1.76653000      -0.37940400       1.73238400
O       18.62105000      12.86843000      11.02731000       0.34914500       1.41411700       0.08600900
O        9.62496000      14.41249000      16.71503000       0.28910600       0.91985400       0.02135400
O       13.26265000      13.79652000      20.82323000      -0.44212400      -0.04130600      -0.42109000
O       13.86097000      18.89527000      20.77516000       0.09312300       0.03814400      -0.00967000
O       13.10547000       9.13438000      13.00659000      -1.31026200       3.36389500      -0.72259800
O       15.91344000       8.26983000      17.22847000      -0.91487800      -0.28086500       0.06972200
O       13.51010000      13.80209000      12.65610000       0.09472100       0.28506300       0.46066300
O       16.82511000      13.66204000      16.93511000      -0.29875600       0.24855800      -0.01053900
O       13.84676000      18.99672000      12.89031000       0.05266600      -0.18148700       0.34747100
O       17.08995000      19.32921000      17.05835000       0.62452300      -4.57510100       0.55947900
O       16.76898000      13.88033000       8.85472000      -1.24985300      -0.51650000      -2.11820600
O       20.39114000      14.31851000      13.35433000       0.01749800       0.58620000      -0.28669100
O       17.17423000      19.16379000       9.35502000      -0.58514300       0.17629500       0.09817200
O       12.55703000      10.74236000      20.68980000      -0.11469500       0.42072500      -0.27309600
O        9.56752000      15.71047000      16.63475000       0.20388400      -0.88096800       0.26287800
O       13.08005000      15.74960000      21.00682000      -0.24065800      -0.29931200      -0.12568900
O       12.95483000      10.87077000      12.86917000      -0.08944800      -2.42717700      -0.06729200
O       16.16424000      10.95883000      17.09976000       0.09557300       0.25473700      -0.60808900
O       13.18044000      16.31124000      13.06294000       0.38592300      -0.09199700      -0.22227500
O       16.51141000      16.19670000      17.24463000      -0.05335700       0.09324800      -0.24835400
O       14.12073000      21.71827000      12.79958000       0.69508400       0.26077700       0.02847100
O       17.06400000      20.57526000      17.02414000       0.63517200       3.98510200      -0.18895400
O       16.64740000      16.44195000       9.09924000      -0.28225300      -0.16631600       0.15885400
O       20.37165000      15.63008000      13.28082000      -0.28579600      -0.62409600       0.17718800
