107
Lattice="30.0 0.0 0.0 0.0 30.0 0.0 0.0 0.0 30.0" Properties=species:S:1:pos:R:3:forces:R:3 energy=-778.00137582 stress="10.71137 -9.26566 8.57776 -9.26566 -13.13701 20.26733 8.57776 20.26733 1.64739" pbc="T T T"
Zr      12.97316000      12.52382000      14.76172000      -1.13733700       1.09888200      -0.13064900
Zr      16.36159000      12.36949000      18.71766000      -0.19316800      -1.01536100       0.59479100
Zr      13.22518000      17.92210000      14.69215000       0.48352600       0.18747600       1.69691200
Zr      16.88817000      17.71266000      18.93124000      -4.50133500      -0.86355300       1.38087600
Zr      16.49417000      12.84528000      10.59870000      -2.83646200      -2.90336800      -1.45323200
Zr      17.06294000      17.60447000      10.63369000      -0.25785300       0.00197600       1.70609700
Zr      13.04698000      12.12928000      19.39809000       1.38157700      -1.09087000       0.52897500
Zr      13.41858000      17.34301000      19.71595000       2.84981900       0.17422700      -1.25655000
Zr      13.22130000      12.42449000      11.18355000       1.65181800      -1.13162200       0.35286000
Zr      16.77156000      12.09235000      15.27083000       0.17013600      -0.64060100      -1.63011100
Zr      13.72778000      17.59704000      11.20945000       0.12872900       1.01966600      -0.54822600
Zr      16.98123000      17.33353000      15.24853000      -0.00502900      -1.69598700      -1.21690800
Zr      11.86813000      15.39241000      17.32984000      -2.71617400       0.21966700      -3.12286900
Zr      14.96253000      14.70581000      21.43258000       1.17792200       3.21157000      -3.86809900
Zr      15.17520000       9.83457000      13.10040000      -1.60107600       1.83705500       0.00698000
Zr      14.98296000      15.12718000      13.30213000       1.16533400       1.56754700      -0.04426900
Zr      18.35349000      15.00073000      17.32701000       0.37821100       2.01557100      -0.52169500
Zr      15.44871000      20.06815000      13.56985000      -1.31399500      -2.92440400      -4.83284400
Zr      14.47135000       9.91842000      16.39903000       1.14379800       0.00896600       2.62794400
Zr      11.60433000      15.07799000      12.63808000      -0.24041000      -2.22357700       0.85394500
Zr      15.02710000      14.78034000      16.70888000      -1.62139800      -0.42174000       0.52860900
Zr      14.64767000      20.19820000      16.92234000       5.02228200      -4.72652400      -3.23113200
Zr      15.01291000      15.32263000       8.66208000       0.65490300       0.20052500       0.66462900
Zr      18.28822000      14.71460000      12.68822000       0.58314100       0.06628700       0.25748700
O       12.98717000       9.05220000      15.36991000       1.52160200      -2.12241400      -1.79978200
O       12.84590000      14.08250000      16.03776000       0.17149300       1.08986700       1.09227500
O       16.36598000      13.90080000      20.04871000       0.07122700       0.47863300       0.08741500
O       13.19742000      19.60042000      16.02589000      -3.67493700      -1.75437700      -3.36238400
O       16.40209000      19.09751000      20.30670000      -0.20337800      -0.56785400      -0.48208400
O       15.81360000       8.84433000      11.80238000       1.11473200      -2.30571600      -2.39737600
O       16.40768000      14.13774000      11.97203000      -1.32828800       1.49353800       0.90067700
O       19.33425000      13.38731000      16.41186000      -1.16207600      -3.26387000       0.39323100
O       16.95570000      19.20325000      12.36942000       1.27495100      -0.42495400       2.45919300
O       13.33474000      10.72067000      17.84687000      -0.46721100      -0.13023200       0.62323700
O       10.63351000      16.67634000      13.61806000       1.38427200       3.40282300      -0.53890400
O       13.53623000      15.75777000      17.97465000       3.06018600       0.45086300       1.25808800
O       14.16239000      21.12417000      18.16231000      -2.87090700       5.63093600       6.85476500
O       16.79228000      10.41744000      13.97028000       1.51653200       1.57887000       1.93391100
O       13.66369000      16.06309000       9.99658000      -0.27207300      -0.53158500      -0.01424900
O       17.14703000      15.82717000      13.93356000      -1.04617700       0.17233200       0.42215700
O       16.77193000      21.15650000      14.73975000      18.75938400      -1.57440000      -4.04178600
O       12.10571000      11.25283000      15.92402000       0.16715700      -0.07732500       0.19920300
O       15.13415000      11.41262000      19.91001000      -0.97357800      -0.05771200       0.13719600
O       12.07680000      16.93208000      15.95012000      -0.09556000      -1.34282300       0.98605200
O       15.55442000      16.51955000      20.07607000       0.25304400       0.32443900      -0.25793500
O       15.09676000      11.55851000      11.56751000       1.01366700      -0.53280300       0.76266200
O       18.66998000      11.84446000      16.33981000       1.73837400       3.64551700       0.35150100
O       15.56604000      16.85206000      11.89989000      -1.23442900      -1.48218300       1.18573800
O       18.73005000      16.51714000      16.08696000       0.03112000      -1.01664400       0.72470400
O       15.23294000      22.11281000      12.16383000       0.02793800      -0.50488900       0.11731400
O       14.78356000       7.86159000      17.83565000       1.85680000       0.90015500      -0.94662400
O       11.28131000      13.54229000      13.87509000       0.20584800       1.58834400      -1.23110600
O       14.50053000      13.11868000      18.10318000       0.45326000       1.67881600      -1.14557500
O       11.30034000      18.11587000      13.67734000      -2.10602800      -3.51248300      -0.53662200
O       14.82228000      18.28750000      18.14001000       0.54459100       0.67281200       0.06055900
O       14.37620000      13.12291000       9.89948000       1.16191900       1.79624800      -1.82383700
O       17.92548000      13.24354000      13.91702000      -0.92538400      -1.91327200       1.92420500
O       15.16916000      18.65373000      10.14052000       0.43045500       0.48192600       0.15759400
O       17.80170000      18.71481000      13.89781000      -0.73851200       0.50494200      -2.02767400
O       11.04402000      12.16133000      18.68664000      -0.26315400       1.16685500      -0.21099800
O       11.37660000      17.16214000      18.95952000       0.10954300       1.26340700       0.14083200
O       14.63002000      16.14358000      22.80904000       0.09324900       0.01713400       0.15658100
O       11.29085000      12.26889000      10.64692000      -1.61751100       0.46023700      -0.33400400
O       14.60470000      11.26949000      14.95192000       0.80523500       0.58116700      -0.36291400
O       18.48206000      11.43811000      18.72924000       0.14396600       3.65694800       0.48484700
O       11.43590000      17.11287000      10.87667000       0.66443200       4.24058900       1.33556700
O       14.84724000      16.37039000      15.17263000      -0.10570200      -1.18628800      -0.70088200
O       18.53752000      16.35766000      19.17770000       0.40995400       0.87259000       0.00714000
O       15.69489000      21.35037000      15.02443000     -17.46278700       5.33852900       7.36440000
O       18.20454000      11.61522000      11.00741000      -0.49625000      -1.38617600      -0.00248300
O       14.86535000      16.41538000       7.15529000      -0.35745600       0.19255800      -0.73685500
O       18.34858000      16.16113000      11.38310000       0.32864900       1.05258700      -1.27016500
O       11.36670000      13.50872000      18.60767000      -0.17539100      -0.86934300       0.21725400
O       15.20049000      13.69411000      22.86203000       0.75853000      -2.27271600       4.12631600
O       11.73265000      18.53921000      19.12445000      -0.60384600      -1.58628400      -0.22413800
O       14.47941000       8.52109000      14.82238000      -2.10015000       0.19689900       1.04891000
O       11.45956000      13.68401000      10.83401000      -0.29414400       0.18889100       0.20995300
O       15.10887000      13.68139000      14.84904000       0.76346200       0.38255700       0.21730000
O       18.56447000      12.82360000      19.13583000      -0.04364100      -3.10984900      -1.14607800
O       11.53094000      18.64372000      11.24282000       0.17453400      -5.02916900      -0.52170000
O       15.44377000      18.69121000      15.02872000      -0.46874000       0.85375100       0.32269600
O       18.79439000      17.85917000      19.41989000       1.48676500      -1.56463800      -0.42662100
O       15.62663000      13.75888000       7.43117000       2.23574400      -0.71609500       2.27357200
O       18.57952000      12.89157000      11.04228000       1.25295000       1.76483600       0.06980900
O        9.65524000      14.38498000      16.72741000       0.05719900       2.90506000      -0.16331200
O       13.28109000      13.85005000      20.81410000      -1.49470400      -0.53286400      -0.88125400
O       13.87559000      18.89573000      20.76361000       0.06633100       0.22541700       0.17217000
O       13.04080000       9.30660000      12.99449000      -1.14933900       3.44451000      -0.73970400
O       15.89584000       8.24673000      17.21103000      -2.21911800      -0.61739700       0.83881500
O       13.50241000      13.75298000      12.65690000       0.37809200       1.10810300       0.83196000
O       16.84687000      13.64183000      16.94216000      -0.77824300       1.04295300      -0.11174200
O       13.85337000      18.96737000      12.91490000       0.10200200       0.17234700       0.25536700
O       17.13757000      19.39400000      17.10164000       0.50776200     -32.34747200       2.48669500
O       16.73096000      13.81165000       8.74715000      -1.90770800      -0.05820500      -2.47746300
O       20.37673000      14.36781000      13.32738000       0.80780200      -5.60391500       0.04133900
O       17.14334000      19.15601000       9.37436000      -0.97793800       0.48060600       0.03474000
O       12.49109000      10.69500000      20.73669000       0.26877800       1.11506000      -0.92710500
O        9.56808000      15.73664000      16.64718000       0.36740200      -2.83844700       0.35499900
O       13.08599000      15.74293000      20.97693000      -0.52541800      -0.91733200       0.36749500
O       12.94198000      10.80239000      12.81799000      -0.28087000      -2.59215800       0.32460300
O       16.16341000      10.97809000      17.06729000       0.34492300       0.41374100      -0.85339200
O       13.16974000      16.33306000      13.05174000       0.89491600      -0.59300100      -0.27750200
O       16.51922000      16.27136000      17.22346000      -0.08271300      -0.72858200      -0.02286000
O       14.16280000      21.74151000      12.81402000       0.40863600       0.17241600       0.26576800
O       17.15130000      20.43116000      17.04150000       0.51285700      32.03361400      -2.37190500
O       16.63341000      16.47266000       9.14219000      -0.50437000      -1.18631200      -0.72350000
O       20.33245000      15.57561000      13.28942000      -0.06149200       5.64554500       0.16819200
