107
Lattice="30.0 0.0 0.0 0.0 30.0 0.0 0.0 0.0 30.0" Properties=species:S:1:pos:R:3:forces:R:3 energy=-784.28717988 stress="-29.07071 -4.65431 7.29056 -4.65431 -49.18633 8.90549 7.29056 8.90549 -23.95208" pbc="T T T"
Zr      12.96079000      12.54299000      14.74668000      -0.51608700       0.43892200      -0.06798800
Zr      16.27459000      12.36423000      18.72931000       0.08252900      -0.54842900       0.30412000
Zr      13.21270000      17.95225000      14.75371000       0.38610800       0.26555900       0.60903300
Zr      16.74891000      17.71443000      18.91809000      -1.20095500      -0.79733500       1.08456200
Zr      16.43973000      12.78665000      10.58130000      -1.45788600      -1.21445300      -0.33272200
Zr      17.03963000      17.65067000      10.66795000      -0.23827100      -0.48338200       0.60086100
Zr      13.13524000      12.12914000      19.43598000       0.41416800      -0.77781600       0.14831400
Zr      13.54671000      17.34165000      19.66261000       1.32095400       0.12391100      -0.46321400
Zr      13.27612000      12.42910000      11.22406000       0.49247100      -0.72370300      -0.47559800
Zr      16.78296000      12.06218000      15.22693000       0.12967200      -0.30105900      -0.80450600
Zr      13.79293000      17.61455000      11.20832000       0.11538900       0.37555900      -0.29211100
Zr      17.00499000      17.35230000      15.25068000      -0.14598300      -1.06876000      -0.51144900
Zr      11.86361000      15.37810000      17.29915000      -0.40103800       0.69463900      -1.85475400
Zr      14.95462000      14.77727000      21.40412000       0.70361100       1.14523600      -1.62484300
Zr      15.07857000       9.88324000      13.09560000       0.15885800       0.70184800      -0.56710000
Zr      15.00115000      15.20851000      13.34566000       0.66007000       0.66981500      -0.46451500
Zr      18.35907000      14.98416000      17.32988000       0.22920800       1.58345100      -0.36863000
Zr      15.50373000      20.12891000      13.52190000      -1.02355700      -1.01986000      -1.63970900
Zr      14.45472000       9.84220000      16.44339000       0.94115100       0.04942300       1.07772000
Zr      11.59378000      15.08262000      12.64445000      -0.11486400      -1.58979400       0.78745600
Zr      15.00939000      14.76201000      16.68114000      -0.78267600      -0.18317300       0.66743400
Zr      14.80456000      20.11929000      16.92296000       0.17530400      -1.15080700       0.03767100
Zr      15.05033000      15.27375000       8.65193000       0.09814700       0.53833500       0.54212100
Zr      18.27985000      14.72832000      12.69275000       0.41477000      -0.01330400       0.10446900
O       12.90707000       9.06207000      15.42140000       1.45138000      -1.19182200      -1.32572700
O       12.84184000      14.10622000      16.04965000      -0.06575700       0.66073400       0.72608300
O       16.36255000      13.92178000      20.05705000       0.10001300       0.13469700       0.05982700
O       13.19410000      19.56542000      16.00787000      -1.01785100      -0.64439300      -1.37120300
O       16.41710000      19.07688000      20.28448000      -0.28694800      -0.07870400       0.02590500
O       15.85634000       8.83152000      11.76202000       0.17136000      -0.77654100      -0.51701400
O       16.31789000      14.12414000      11.97271000       0.06939400       0.89033200       0.51636800
O       19.38404000      13.49143000      16.36710000      -0.94159300      -2.55917100       0.43305500
O       16.89017000      19.18450000      12.29817000       1.34962400      -0.24686800       1.74497900
O       13.34320000      10.74658000      17.84588000      -0.31910100      -0.24436700       0.33158800
O       10.58136000      16.55842000      13.65419000       1.21389300       2.77944500      -0.44157900
O       13.63801000      15.77768000      17.99684000       0.18586200      -0.04416900       0.23079900
O       14.11696000      21.14897000      18.20459000      -0.53274000       1.35147200       1.28754400
O       16.79974000      10.44049000      13.98425000       0.50790000       0.80597300       1.02328700
O       13.66221000      16.04623000       9.97438000      -0.17073900      -0.13628500       0.17603000
O       17.14015000      15.83482000      13.94905000      -0.59766900       0.00117900       0.09901200
O       16.93214000      21.07602000      14.64082000      -1.19171600       1.61794600       1.34040200
O       12.07118000      11.27016000      15.92912000       0.26757800      -0.15137200       0.12432200
O       15.07949000      11.37510000      19.94948000      -0.54407500       0.37954600      -0.36628100
O       12.04693000      16.86418000      15.98700000       0.04304500      -0.90862500       0.80894300
O       15.53798000      16.52517000      20.08683000       0.09416400       0.26119200      -0.34754100
O       15.13805000      11.52233000      11.61875000       0.32246200      -0.00290500       0.06112800
O       18.61713000      11.71399000      16.30025000       1.29294500       2.90050900       0.44185500
O       15.52857000      16.81115000      11.97042000      -0.61745900      -0.68564900       0.31609600
O       18.74843000      16.48426000      16.12969000      -0.23183400      -0.50183500       0.20084800
O       15.25217000      22.06361000      12.22736000      -0.30975300      -0.22469400      -0.12763700
O       14.77135000       7.92126000      17.76660000       0.81699700       0.28513900      -0.06791600
O       11.25814000      13.56483000      13.84573000       0.35923800       1.05815300      -0.73998000
O       14.52159000      13.16845000      18.02886000       0.23643100       0.69798500      -0.25148000
O       11.36544000      18.25473000      13.71583000      -1.68646300      -3.04536900      -0.59598700
O       14.80270000      18.32023000      18.14811000       0.51840200       0.19904800       0.05254800
O       14.40924000      13.15469000       9.84845000       0.37544800       0.69677600      -0.42070400
O       17.95182000      13.22267000      13.96348000      -0.72935800      -0.86666800       0.68292100
O       15.16726000      18.64163000      10.11432000       0.14098400       0.24950000       0.42924500
O       17.86119000      18.71831000      13.93232000      -0.83775000       0.11534800      -1.51296700
O       11.04821000      12.17401000      18.67503000       0.05046600       0.57926700       0.01106200
O       11.37030000      17.21130000      18.96656000       0.23706000       0.21485300       0.02899900
O       14.61923000      16.18196000      22.81705000       0.12589900      -0.26741300       0.10372000
O       11.24781000      12.26770000      10.63289000      -0.17595600       0.51320000       0.02260500
O       14.60770000      11.25211000      14.97873000       0.38963000       0.37296900      -0.15390100
O       18.48734000      11.46919000      18.78557000       0.01670500       1.88113600      -0.08745600
O       11.43870000      17.21327000      10.90076000       0.41429200       2.49029600       0.61726700
O       14.86228000      16.35770000      15.17280000      -0.16600900      -0.64870300      -0.53776400
O       18.54694000      16.38976000      19.18885000       0.25569800       1.72727000       0.17819500
O       15.54414000      21.43269000      15.13580000       1.48366400       0.16145100      -0.11589700
O       18.19858000      11.61110000      11.01776000      -0.31104600      -1.20158800      -0.03805500
O       14.86671000      16.44287000       7.14919000      -0.18636900      -0.00726500      -0.32572700
O       18.32304000      16.21692000      11.34693000       0.28454700       0.10840100      -0.40125600
O       11.38728000      13.47697000      18.62344000      -0.23266600      -0.27262900      -0.01080400
O       15.19210000      13.63091000      22.86691000       0.37641200      -0.53650800       1.66433300
O       11.71806000      18.51193000      19.11104000      -0.17641700      -0.54773100      -0.01640900
O       14.57329000       8.46681000      14.74465000      -1.68372200       0.61504500       1.49227000
O       11.43763000      13.65728000      10.80802000      -0.02599200       0.01276900       0.25415400
O       15.09849000      13.67489000      14.82719000       0.50024500       0.26058800       0.22787300
O       18.54985000      12.76874000      19.11900000       0.05090600      -1.50848100      -0.45814600
O       11.51980000      18.56230000      11.18548000       0.06297800      -2.89528000      -0.08104700
O       15.41164000      18.71458000      15.00008000      -0.04444100       0.04975500       0.23538300
O       18.81881000      17.85238000      19.43722000      -0.35113100      -2.20093400      -0.79734000
O       15.54870000      13.75764000       7.35188000       1.87124100      -0.43625000       1.84117300
O       18.61570000      12.87141000      11.02923000       0.44442700       1.45627200       0.08258000
O        9.62886000      14.40895000      16.71662000       0.26379700       1.22264400      -0.00459200
O       13.26502000      13.80342000      20.82205000      -0.56075600      -0.11574200      -0.47306400
O       13.86285000      18.89533000      20.77367000       0.08441600       0.05676700       0.01443000
O       13.09713000       9.15657000      13.00503000      -1.34072600       3.50365400      -0.76728900
O       15.91117000       8.26685000      17.22622000      -1.09855700      -0.32126600       0.16351300
O       13.50911000      13.79576000      12.65621000       0.13078600       0.39786000       0.50912400
O       16.82791000      13.65944000      16.93602000      -0.36453800       0.35053500      -0.02193100
O       13.84761000      18.99294000      12.89348000       0.05526700      -0.14429400       0.35272300
O       17.09609000      19.33756000      17.06393000       0.68025200      -6.26325300       0.64409600
O       16.76408000      13.87148000       8.84086000      -1.37511900      -0.46358000      -2.22426300
O       20.38928000      14.32486000      13.35086000       0.09378800       0.01647600      -0.23992200
O       17.17025000      19.16279000       9.35751000      -0.63805000       0.21035600       0.08789000
O       12.54853000      10.73626000      20.69584000      -0.04989600       0.53007800      -0.37225000
O        9.56759000      15.71384000      16.63635000       0.22876200      -1.17804000       0.28069400
O       13.08082000      15.74874000      21.00297000      -0.28340500      -0.35977100      -0.07493100
O       12.95318000      10.86196000      12.86258000      -0.09013500      -2.58401200       0.00270400
O       16.16413000      10.96131000      17.09558000       0.11601700       0.26680100      -0.64388300
O       13.17906000      16.31405000      13.06150000       0.46270800      -0.16035000      -0.22787400
O       16.51241000      16.20632000      17.24190000      -0.06309300      -0.01929500      -0.22364300
O       14.12615000      21.72127000      12.80144000       0.65428000       0.26403000       0.03289800
O       17.07525000      20.55669000      17.02638000       0.54949600       5.69531900      -0.32102000
O       16.64559000      16.44590000       9.10477000      -0.30327400      -0.27178900       0.07754300
O       20.36660000      15.62306000      13.28192000      -0.23984600      -0.04397600       0.16984200
