107
Lattice="30.0 0.0 0.0 0.0 30.0 0.0 0.0 0.0 30.0" Properties=species:S:1:pos:R:3:forces:R:3 energy=-789.24438521 stress="-8.52745 -7.20834 4.67983 -7.20834 -46.48863 14.87175 4.67983 14.87175 -17.21762" pbc="T T T"
Zr      12.95702000      12.54069000      14.75473000      -0.39990300       0.74192200       0.50524000
Zr      16.33186000      12.35520000      18.72876000      -0.54291300      -0.37269700       0.21061200
Zr      13.22937000      17.93905000      14.72826000       0.56682300      -0.00835800       1.14099200
Zr      16.81048000      17.69530000      18.95095000      -2.96392300       0.16607600       0.27899300
Zr      16.44148000      12.79657000      10.58487000      -1.18055500      -1.31531800      -0.29901600
Zr      17.04909000      17.61033000      10.65970000      -0.30844000      -0.11906400       0.99829200
Zr      13.08838000      12.11167000      19.41520000       1.07975900      -0.74761100       0.26299200
Zr      13.49494000      17.34531000      19.68612000       1.99162700       0.09407400      -1.00287000
Zr      13.25233000      12.40983000      11.18752000       0.99398300      -0.15660100       0.06465800
Zr      16.77863000      12.07459000      15.23672000      -0.10856600      -0.09751700      -1.05297200
Zr      13.75405000      17.61188000      11.20245000       0.50152900       0.38668700      -0.44584800
Zr      16.98656000      17.31622000      15.23776000      -0.35955500      -0.37094700      -0.20510700
Zr      11.85743000      15.40290000      17.27681000      -1.12131900       0.41348200      -1.73034200
Zr      14.97555000      14.75762000      21.38556000       0.57433200       1.21301500      -1.45018200
Zr      15.14369000       9.86809000      13.08585000       0.02891700       0.85489000      -0.39397400
Zr      15.00447000      15.17184000      13.30745000       0.78326700       1.06916100       0.02910000
Zr      18.36069000      15.03046000      17.31973000      -0.30321500       1.21339000      -0.39062800
Zr      15.44558000      20.06719000      13.51541000      -0.71001100      -1.67352100      -2.47488900
Zr      14.48656000       9.89185000      16.43947000       0.78123000       0.47432000       1.70389000
Zr      11.59790000      15.04378000      12.65818000       0.37427500      -1.40428500       0.25554100
Zr      15.00299000      14.76955000      16.71388000      -0.94364900      -0.47954300       0.44511000
Zr      14.70861000      20.14356000      16.92341000       2.68171400      -2.18199100       0.24898600
Zr      15.02872000      15.31703000       8.67063000       0.20362900       0.48530100       0.43776800
Zr      18.29455000      14.71928000      12.69222000       0.27344400      -0.30400100       0.10183800
O       12.99085000       9.02888000      15.35868000       1.93628100      -1.84378900      -1.61654600
O       12.84294000      14.10603000      16.05847000       0.09358000       0.47542300       0.47057600
O       16.36699000      13.91146000      20.05309000       0.18811500       0.22371900       0.06646300
O       13.17323000      19.57316000      15.98838000      -1.83552000      -0.96047900      -2.05910400
O       16.40107000      19.08824000      20.29921000      -0.36053200      -0.23102700       0.03860300
O       15.83299000       8.82214000      11.77605000       0.32526800      -1.11856500      -0.89431000
O       16.37663000      14.15290000      11.98394000      -0.71720800       0.49816800      -0.02941400
O       19.33108000      13.36734000      16.40538000      -1.24131700      -3.30918900       0.53662200
O       16.96237000      19.19087000      12.38294000       1.42267400      -0.59782100       2.28660700
O       13.33061000      10.72456000      17.85400000      -0.35730600      -0.28674600       0.38632100
O       10.64198000      16.69627000      13.62121000       1.34740200       3.20267500      -0.65022400
O       13.57739000      15.76400000      17.98792000       1.39368400       0.22401000       0.73026900
O       14.13386000      21.16369000      18.20674000      -1.05894100       2.14645400       2.18741800
O       16.80645000      10.44401000      13.99846000       0.65778600       0.76866900       1.07106800
O       13.65930000      16.05389000       9.99249000      -0.28792900      -0.22101000       0.09074300
O       17.13104000      15.82998000      13.94142000      -0.61284100      -0.14933400       0.03374400
O       16.80321000      21.16380000      14.73409000       9.83047800      -0.48178700      -2.14733800
O       12.09921000      11.25571000      15.92867000       0.26671700       0.22017400      -0.13379600
O       15.10201000      11.40756000      19.91607000      -0.73336900      -0.00517100       0.00009900
O       12.06692000      16.88690000      15.98178000      -0.03665800      -0.73985200       0.40884700
O       15.55058000      16.52749000      20.07213000      -0.07906400      -0.02235200      -0.04720500
O       15.11904000      11.54530000      11.58750000       0.55411700      -0.44409600       0.53400600
O       18.67998000      11.86256000      16.33542000       1.87179100       3.70693200       0.48419200
O       15.53849000      16.82172000      11.93264000      -0.77980700      -0.88521900       0.68258500
O       18.73149000      16.49387000      16.10701000       0.23811000      -0.77143200       0.24166800
O       15.23293000      22.08987000      12.18402000       0.87572700      -0.16140000      -0.43236400
O       14.79757000       7.88970000      17.80904000      -0.17824500       0.10517900       0.27567500
O       11.28100000      13.57437000      13.84772000      -0.08469500       0.84874700      -0.44706200
O       14.51352000      13.15251000      18.07051000       0.39335000       1.08199400      -0.68951700
O       11.28591000      18.09754000      13.67786000      -1.88392900      -3.28969600      -0.46899200
O       14.82687000      18.30388000      18.14414000       0.05567000       0.41203200       0.16609500
O       14.39667000      13.15018000       9.87145000       0.56825400       1.09770100      -0.96259800
O       17.91858000      13.21639000      13.94932000      -0.57978500      -0.97374100       1.05069500
O       15.17166000      18.65497000      10.14069000       0.31257500       0.39758600       0.29815500
O       17.80439000      18.71869000      13.87618000      -0.88871500       0.47996200      -2.13620300
O       11.04668000      12.17901000      18.68268000      -0.25061000       0.58898700      -0.11136400
O       11.37966000      17.18485000      18.96273000       0.19230600       0.69298900       0.12164500
O       14.62894000      16.15148000      22.81429000       0.26947000      -0.43779700       0.11931800
O       11.27125000      12.28004000      10.64234000      -0.80945800       0.02991500      -0.14338500
O       14.61459000      11.27160000      14.95818000       0.23195100       0.34793200      -0.20457200
O       18.48435000      11.49187000      18.74773000       0.15874500       1.14380400      -0.26915400
O       11.44627000      17.20556000      10.89935000       0.28329200       2.13844000       0.71730400
O       14.84895000      16.35113000      15.16055000      -0.15162500      -0.65483800      -0.53418700
O       18.54671000      16.40832000      19.18577000       0.34757200      -0.21682500      -0.13449200
O       15.67364000      21.38391000      15.06226000      -9.31691300       2.96727000       3.85903700
O       18.19536000      11.58659000      11.01031000      -0.12532400       0.70059700      -0.01643800
O       14.86164000      16.42520000       7.14572000      -0.27870900      -0.01015000      -0.42551900
O       18.34573000      16.18384000      11.36090000       0.26606500       0.54669300      -0.71366300
O       11.36892000      13.49103000      18.61315000      -0.19326300      -0.35451900       0.07747300
O       15.20594000      13.65904000      22.90138000       0.29510600      -0.19957500       1.47955000
O       11.72337000      18.51694000      19.11921000      -0.34321500      -0.98087900      -0.10636600
O       14.47549000       8.51527000      14.82784000      -2.06331300       0.37797400       0.99113700
O       11.45101000      13.67459000      10.83031000      -0.00573800       0.48841100       0.33253600
O       15.11639000      13.68491000      14.84625000       0.44867300       0.25923600       0.16542500
O       18.56031000      12.76962000      19.11937000       0.25226500      -0.78682700      -0.39153100
O       11.52832000      18.54878000      11.22017000       0.06562200      -2.61664700       0.01542400
O       15.43109000      18.70082000      15.02363000      -0.48580300       0.64550200      -0.10644000
O       18.79533000      17.80701000      19.40818000       1.04238400      -0.61022600      -0.25267100
O       15.64058000      13.74858000       7.44394000       2.27142800      -0.66945300       2.23287100
O       18.60269000      12.91713000      11.03940000      -0.11480400      -0.18206300      -0.09289600
O        9.65161000      14.42129000      16.72339000       0.23688600      -0.00650400       0.04547500
O       13.26259000      13.83050000      20.80631000      -0.66030000       0.00358900      -0.46813500
O       13.87287000      18.89687000      20.76759000       0.10840700       0.15591300       0.13165200
O       13.03099000       9.33122000      12.98099000      -1.10685000       2.18796200      -0.51396000
O       15.87661000       8.24679000      17.22024000      -0.09369600      -0.03184100      -0.24450900
O       13.50780000      13.77750000      12.66814000       0.09294600       0.23939500       0.22830400
O       16.83176000      13.65614000      16.93943000      -0.29162000       0.88332900       0.12276400
O       13.85253000      18.97340000      12.91509000      -0.11482900      -0.01389900       0.14317300
O       17.13786000      19.23209000      17.10248000       0.32003600       0.90279600       0.30575900
O       16.71194000      13.82291000       8.73096000      -1.78953100      -0.33879000      -2.43524100
O       20.38341000      14.35259000      13.33049000       0.53844100      -3.42509200      -0.05352600
O       17.13870000      19.16322000       9.37023000      -0.95433800       0.12599700       0.29449700
O       12.51083000      10.72195000      20.71345000       0.07240400       0.76088900      -0.57925300
O        9.57307000      15.70177000      16.64959000       0.00334300       0.03857600       0.17596300
O       13.07771000      15.73692000      20.98470000      -0.26967200      -0.78318000       0.06135100
O       12.94401000      10.76568000      12.83424000      -0.33949600      -1.32804900      -0.00251800
O       16.16629000      10.97802000      17.06303000       0.23717100       0.24764800      -0.51947900
O       13.18357000      16.32254000      13.05014000       0.36756100      -0.41011500      -0.30721500
O       16.51533000      16.24731000      17.22511000       0.03550400      -0.56572300      -0.06375800
O       14.16426000      21.74012000      12.81019000      -0.45561100      -0.06984400       0.71216600
O       17.13608000      20.60534000      17.02876000      -0.04531500      -1.81110000      -0.18644700
O       16.63099000      16.45680000       9.13035000      -0.25266500      -0.66638800      -0.19402100
O       20.33944000      15.59185000      13.29053000      -0.13308200       3.41889300       0.17395600
