107
Lattice="30.0 0.0 0.0 0.0 30.0 0.0 0.0 0.0 30.0" Properties=species:S:1:pos:R:3:forces:R:3 energy=-793.13891715 stress="-4.02573 0.03704 7.87049 0.03704 -16.09261 14.79272 7.87049 14.79272 -17.53547" pbc="T T T"
Zr      12.94920000      12.54879000      14.76686000      -0.06672900       0.75728000       1.21963300
Zr      16.36422000      12.34411000      18.73112000      -1.04428600       0.03362400       0.25814900
Zr      13.24824000      17.92985000      14.72561000       1.05145600      -0.09594900       1.64885000
Zr      16.81422000      17.68429000      18.97722000      -3.45570900       0.72654400      -0.02785000
Zr      16.42729000      12.78625000      10.58343000      -0.37656600      -0.77249700       0.12362500
Zr      17.05158000      17.58100000      10.66704000      -0.20253200       0.12825200       0.96696900
Zr      13.07020000      12.08988000      19.40432000       1.37675900      -0.62854000       0.29358600
Zr      13.48526000      17.34906000      19.68923000       2.12750300       0.03871200      -1.13674400
Zr      13.24891000      12.39451000      11.16320000       0.82468100       0.62414200       0.20655400
Zr      16.77423000      12.08187000      15.22973000      -0.57341400       0.15067100      -1.17387500
Zr      13.73381000      17.61509000      11.19258000       0.84216800       0.18183100      -0.65205400
Zr      16.96918000      17.28653000      15.22619000      -0.49583300       0.17431400      -0.03695400
Zr      11.83856000      15.42537000      17.23886000      -1.06050500       0.06046400      -0.96729500
Zr      14.99745000      14.75991000      21.35386000       0.32100100       0.74725700      -0.70104100
Zr      15.18892000       9.86881000      13.07400000       0.76646000       0.55404700      -0.47742000
Zr      15.01697000      15.16054000      13.28152000       0.76459200       1.10027400       0.42446200
Zr      18.35785000      15.07818000      17.30765000      -0.79796500       0.76096600       0.10897400
Zr      15.39627000      20.00285000      13.47867000       1.12280300       0.54045000      -0.91818400
Zr      14.51867000       9.93223000      16.45900000       0.35829300       0.93121700       2.04428800
Zr      11.60562000      14.99871000      12.67096000       0.83959600      -0.95532700      -0.87934200
Zr      14.98628000      14.76849000      16.74223000      -0.88647500      -0.70967500       0.35377500
Zr      14.67751000      20.13181000      16.92697000       2.25982400      -1.59131500       0.97342900
Zr      15.01649000      15.35317000       8.68922000      -0.04024100       0.62743100       0.13589300
Zr      18.30823000      14.70910000      12.69319000       0.87144600      -0.35332800       0.19814300
O       13.07381000       8.98197000      15.29439000       0.16964300      -1.27383500      -0.93647600
O       12.84492000      14.11210000      16.07069000       0.14400900       0.30952200       0.16851400
O       16.37250000      13.90727000      20.05123000       0.29848400       0.15268900       0.00021600
O       13.13492000      19.56596000      15.94811000      -1.26096700      -0.81024700      -1.75892000
O       16.38532000      19.09306000      20.30986000      -0.40240900      -0.20734700       0.09282500
O       15.82115000       8.80109000      11.77405000       0.09279900      -0.83180400      -0.55241100
O       16.40774000      14.17921000      11.99128000      -1.25746200      -0.14893900      -0.69781900
O       19.27840000      13.23872000      16.43875000       0.22404800      -0.26219000       0.91408500
O       17.03065000      19.18745000      12.47115000       1.04808400      -0.79406800       1.70083300
O       13.31727000      10.70566000      17.86462000      -0.20716700      -0.41667600       0.33714200
O       10.70130000      16.83298000      13.59002000      -2.36577800      -4.69476700      -1.38967300
O       13.55382000      15.75750000      17.99130000       1.45891600       0.28750600       0.74290900
O       14.13169000      21.20183000      18.23674000      -0.55417400       1.21731600       0.99805100
O       16.81966000      10.45646000      14.02221000       0.55060400       0.40832200       0.74851500
O       13.65353000      16.05629000      10.00615000      -0.33891100      -0.18023000       0.02279700
O       17.11677000      15.82469000      13.93661000      -0.53543700      -0.20685400      -0.01712300
O       16.84263000      21.21797000      14.77031000       4.77092500      -0.11945900      -0.95279400
O       12.12200000      11.24863000      15.92663000       0.26577200       0.51863800      -0.53075400
O       15.10796000      11.42985000      19.89307000      -0.70789400      -0.23985600       0.19612300
O       12.08021000      16.89290000      15.98351000      -0.16265200      -0.28261900      -0.33457200
O       15.55822000      16.52880000      20.06139000      -0.30280500      -0.30385900       0.18668800
O       15.11316000      11.55533000      11.57295000       0.52347100      -0.80747800       0.81919400
O       18.74768000      12.01324000      16.36595000       0.59235800       0.55776500       0.22325700
O       15.53516000      16.81746000      11.91553000      -0.75505600      -0.78409100       0.84914400
O       18.72293000      16.49043000      16.09454000       0.56818900      -0.59640200      -0.05643900
O       15.23110000      22.10585000      12.14854000       0.54015600      -0.43586400      -0.11290200
O       14.81330000       7.86933000      17.84186000      -0.88341000      -0.06754500       0.61509100
O       11.29565000      13.59200000      13.84326000      -0.58506400       0.18917400       0.24377500
O       14.51309000      13.15565000      18.09020000       0.45258600       1.11378300      -0.90028400
O       11.20656000      17.94638000      13.64559000       1.77418000       4.83501500       0.22604800
O       14.84425000      18.29799000      18.14357000      -0.26634600       0.53629800       0.08883700
O       14.39543000      13.16140000       9.87474000       0.62449300       1.12335100      -1.14533300
O       17.88812000      13.19937000      13.95326000      -0.36103600      -0.82340300       1.12752300
O       15.17876000      18.66935000      10.16275000       0.38132800       0.45385100       0.27342200
O       17.75368000      18.72521000      13.80965000      -0.63686300       0.35444300      -1.65874300
O       11.04236000      12.19014000      18.68649000      -0.49803900       0.36636100      -0.16471500
O       11.38862000      17.17567000      18.96168000       0.06347400       0.47963400       0.12326000
O       14.63914000      16.12478000      22.81395000       0.44157500      -0.71102800       0.15620400
O       11.27683000      12.28894000      10.64697000      -0.83371600      -0.24505300      -0.09341500
O       14.62236000      11.28956000      14.94136000      -0.10803600       0.12803200      -0.27018100
O       18.48437000      11.52241000      18.71815000       0.22701100      -0.49355700      -0.85332000
O       11.45517000      17.22814000      10.90774000      -0.08691000      -0.27833100       0.29867200
O       14.83780000      16.33807000      15.14515000      -0.12683000      -0.39738800      -0.45609000
O       18.55109000      16.41827000      19.18190000       0.26617400      -1.81091100      -0.45415000
O       15.64131000      21.38902000      15.06195000      -5.12726300       1.36847400       1.68838100
O       18.19150000      11.57885000      11.00496000      -0.26836200       1.33851100      -0.04093000
O       14.85451000      16.41289000       7.13778000      -0.30760900      -0.22798500      -0.29656300
O       18.36483000      16.16819000      11.36122000       0.13215300       0.68074500      -0.72362300
O       11.35376000      13.49610000      18.60708000      -0.12811000      -0.19920800       0.09579200
O       15.21932000      13.67581000      22.94442000       0.12422500       0.57588000       0.68434100
O       11.72255000      18.50759000      19.12345000      -0.29675700      -0.70222000      -0.10617300
O       14.38122000       8.55357000      14.89806000      -0.29274600      -0.56180200      -0.48715100
O       11.46014000      13.69288000      10.84999000       0.10896300       0.69219500       0.42610800
O       15.13458000      13.69519000      14.86153000       0.29642600       0.24471300       0.03723600
O       18.57081000      12.75996000      19.11452000       0.55608000       0.85281000       0.00384200
O       11.53503000      18.50533000      11.24426000       0.13183600      -0.22850400       0.68154700
O       15.43816000      18.69977000      15.03846000      -0.74590800       0.51089400      -0.16387800
O       18.79276000      17.76781000      19.38489000       1.67302900       0.78500500       0.03737200
O       15.73348000      13.73361000       7.53647000       0.90950500      -0.75554700       0.45064400
O       18.59223000      12.94624000      11.04520000      -0.43376300      -0.68692600      -0.27615900
O        9.67037000      14.42971000      16.72864000       0.34713200      -1.25611800       0.12479600
O       13.25230000      13.84921000      20.78936000      -0.51488500       0.40294400      -0.33612900
O       13.88118000      18.89996000      20.76512000       0.15192300       0.13653000       0.15989400
O       12.97100000       9.48004000      12.95773000      -0.48821900      -7.51717400       1.04296100
O       15.85158000       8.23255000      17.21293000       0.57058900       0.23337800      -0.66637300
O       13.50811000      13.76805000      12.67934000       0.00999100      -0.09479600      -0.06333000
O       16.83060000      13.66539000      16.94338000       0.00102200       1.01188500       0.19523800
O       13.85442000      18.95976000      12.93183000      -0.90801500      -0.38598800      -0.23069700
O       17.17081000      19.17123000      17.13303000       0.23893100       2.45111200      -0.01549100
O       16.65270000      13.78504000       8.62351000      -0.37144400      -0.33589100      -0.60413000
O       20.38639000      14.32700000      13.31576000       0.44661000      -1.00970600      -0.15329600
O       17.10453000      19.16516000       9.38283000      -1.16271100      -0.04810700       0.54901500
O       12.48580000      10.72202000      20.71802000       0.08227700       0.80014700      -0.61748800
O        9.57688000      15.69395000      16.66099000      -0.21584000       1.28958300       0.10225500
O       13.07205000      15.71856000      20.97291000      -0.17119500      -1.13675400       0.02043200
O       12.93327000      10.68205000      12.81470000      -0.90920400       8.04938800      -1.18427900
O       16.17088000      10.99276000      17.03383000       0.40928100       0.21744500      -0.25419500
O       13.19147000      16.32304000      13.03831000      -0.04972400      -0.39013600      -0.26129400
O       16.51780000      16.26815000      17.21271000       0.13089200      -0.72923800      -0.05301800
O       14.18457000      21.75220000      12.82551000      -0.16351900      -0.00394900       0.50187100
O       17.17739000      20.61522000      17.02797000      -0.26117700      -3.31831700      -0.08140700
O       16.61763000      16.45562000       9.14543000      -0.09599800      -0.82570100      -0.24083200
O       20.31900000      15.61495000      13.29872000      -0.17606300       0.93368300       0.25212800
