107
Lattice="30.0 0.0 0.0 0.0 30.0 0.0 0.0 0.0 30.0" Properties=species:S:1:pos:R:3:forces:R:3 energy=-793.22848707 stress="-5.47959 -1.47447 7.3184 -1.47447 -22.35861 14.76503 7.3184 14.76503 -18.01559" pbc="T T T"
Zr      12.95006000      12.54791000      14.76553000      -0.10506600       0.75592800       1.13274300
Zr      16.36069000      12.34532000      18.73086000      -0.98243000      -0.01248300       0.24229000
Zr      13.24618000      17.93085000      14.72590000       0.96578200      -0.09851900       1.56969100
Zr      16.81381000      17.68549000      18.97436000      -3.39988500       0.65690900      -0.00116600
Zr      16.42884000      12.78737000      10.58359000      -0.48592000      -0.82791400       0.06310800
Zr      17.05131000      17.58420000      10.66624000      -0.22086800       0.10254400       0.97617700
Zr      13.07218000      12.09225000      19.40550000       1.34574300      -0.64030400       0.29008400
Zr      13.48632000      17.34865000      19.68889000       2.11388200       0.04114000      -1.12244900
Zr      13.24929000      12.39618000      11.16585000       0.84978200       0.53446000       0.19308000
Zr      16.77470000      12.08108000      15.23049000      -0.50395300       0.13299400      -1.14028600
Zr      13.73602000      17.61474000      11.19366000       0.80653800       0.19809200      -0.61906500
Zr      16.97107000      17.28976000      15.22745000      -0.48038800       0.11939800      -0.06119900
Zr      11.84062000      15.42292000      17.24300000      -1.06926400       0.11114000      -1.07017800
Zr      14.99506000      14.75966000      21.35731000       0.35604900       0.78790000      -0.77588100
Zr      15.18399000       9.86873000      13.07529000       0.65342600       0.58489700      -0.46216800
Zr      15.01561000      15.16177000      13.28434000       0.75779600       1.10185800       0.38465600
Zr      18.35816000      15.07299000      17.30896000      -0.73791700       0.80617000       0.02426400
Zr      15.40165000      20.00986000      13.48267000       0.92801300       0.29258600      -1.05849400
Zr      14.51517000       9.92784000      16.45687000       0.40065700       0.87445100       1.99362900
Zr      11.60478000      15.00362000      12.66957000       0.78472900      -0.99766600      -0.72562300
Zr      14.98810000      14.76860000      16.73914000      -0.88972900      -0.68186900       0.35259900
Zr      14.68089000      20.13309000      16.92659000       2.30112900      -1.65838100       0.89833800
Zr      15.01782000      15.34923000       8.68719000      -0.00696200       0.59863400       0.18123900
Zr      18.30674000      14.71021000      12.69309000       0.79947600      -0.34556300       0.19100200
O       13.06477000       8.98708000      15.30140000       0.58387900      -1.41307400      -1.07301700
O       12.84470000      14.11144000      16.06936000       0.14009000       0.32535000       0.20270300
O       16.37190000      13.90773000      20.05143000       0.28261700       0.16241700       0.00914300
O       13.13910000      19.56675000      15.95250000      -1.31645600      -0.82049800      -1.78260700
O       16.38704000      19.09253000      20.30870000      -0.39858800      -0.20938000       0.08829400
O       15.82244000       8.80339000      11.77427000       0.12107200      -0.86980700      -0.59818500
O       16.40435000      14.17635000      11.99048000      -1.19208300      -0.08100900      -0.62946800
O       19.28414000      13.25273000      16.43511000      -0.15465400      -1.07568400       0.84420600
O       17.02321000      19.18782000      12.46154000       1.12481900      -0.79799700       1.83022000
O       13.31873000      10.70772000      17.86347000      -0.23177000      -0.39893300       0.34550800
O       10.69484000      16.81808000      13.59342000      -1.43793600      -2.69329300      -1.24599000
O       13.55639000      15.75821000      17.99093000       1.45597400       0.28091800       0.74649900
O       14.13193000      21.19767000      18.23348000      -0.60347800       1.31712800       1.12180300
O       16.81822000      10.45510000      14.01962000       0.55929500       0.44974700       0.78267400
O       13.65416000      16.05603000      10.00466000      -0.33437000      -0.18190600       0.03297800
O       17.11833000      15.82527000      13.93713000      -0.54275100      -0.20185000      -0.01129600
O       16.83833000      21.21207000      14.76636000       5.24560000      -0.14198700      -1.06549100
O       12.11951000      11.24940000      15.92685000       0.26656500       0.48814100      -0.47776500
O       15.10731000      11.42742000      19.89558000      -0.71348100      -0.21566500       0.17592900
O       12.07877000      16.89225000      15.98332000      -0.14472100      -0.34515400      -0.23276300
O       15.55739000      16.52865000      20.06256000      -0.27760100      -0.27083300       0.16108800
O       15.11380000      11.55424000      11.57453000       0.53270500      -0.76525300       0.78735100
O       18.74030000      11.99682000      16.36262000       0.94114000       1.39004700       0.28857500
O       15.53552000      16.81792000      11.91739000      -0.75478300      -0.79479200       0.82583000
O       18.72386000      16.49080000      16.09590000       0.53098200      -0.62285900      -0.01699200
O       15.23130000      22.10411000      12.15240000       0.57603800      -0.40750000      -0.14590500
O       14.81159000       7.87155000      17.83828000      -0.80350600      -0.04636200       0.57329200
O       11.29405000      13.59008000      13.84374000      -0.52438800       0.27956600       0.15335500
O       14.51313000      13.15531000      18.08806000       0.44527600       1.10761400      -0.87292400
O       11.21521000      17.96285000      13.64911000       0.86686200       2.80218400       0.07953400
O       14.84235000      18.29863000      18.14363000      -0.23013700       0.52241700       0.09909000
O       14.39557000      13.16018000       9.87438000       0.61430600       1.11836000      -1.11606500
O       17.89144000      13.20123000      13.95283000      -0.38809200      -0.83518400       1.10799200
O       15.17799000      18.66778000      10.16034000       0.38034200       0.44853900       0.27141200
O       17.75921000      18.72450000      13.81690000      -0.69727100       0.39220000      -1.77844700
O       11.04283000      12.18893000      18.68607000      -0.46975800       0.39231300      -0.15912900
O       11.38765000      17.17667000      18.96179000       0.07833700       0.50727400       0.12394700
O       14.63803000      16.12769000      22.81398000       0.42290100      -0.68106600       0.15165100
O       11.27622000      12.28797000      10.64646000      -0.83350900      -0.21214500      -0.09959500
O       14.62151000      11.28761000      14.94319000      -0.06927900       0.15724500      -0.25937500
O       18.48437000      11.51908000      18.72137000       0.22409100      -0.28651000      -0.78037400
O       11.45420000      17.22568000      10.90683000      -0.04222300       0.05265900       0.36290300
O       14.83901000      16.33949000      15.14683000      -0.12802100      -0.42556200      -0.46305400
O       18.55061000      16.41719000      19.18232000       0.27888800      -1.61622100      -0.41361800
O       15.64483000      21.38846000      15.06198000      -5.53452700       1.50822800       1.87841300
O       18.19192000      11.57969000      11.00554000      -0.24447200       1.27850000      -0.03658300
O       14.85528000      16.41423000       7.13864000      -0.30448900      -0.19589500      -0.32104900
O       18.36275000      16.16989000      11.36119000       0.14798600       0.66558700      -0.72373600
O       11.35541000      13.49555000      18.60774000      -0.13645600      -0.21947600       0.09402700
O       15.21786000      13.67399000      22.93973000       0.14154800       0.49760900       0.76634800
O       11.72264000      18.50861000      19.12299000      -0.30277200      -0.73607300      -0.10664900
O       14.39149000       8.54940000      14.89041000      -0.68833200      -0.38788200      -0.26248300
O       11.45915000      13.69089000      10.84785000       0.09713200       0.66972200       0.41484200
O       15.13260000      13.69407000      14.85987000       0.31354200       0.24460700       0.05281000
O       18.56966000      12.76101000      19.11505000       0.51950300       0.64386900      -0.05015200
O       11.53430000      18.51007000      11.24163000       0.11848100      -0.55528200       0.58872600
O       15.43739000      18.69988000      15.03685000      -0.71723500       0.52783000      -0.15400300
O       18.79304000      17.77208000      19.38743000       1.59807500       0.61222300       0.00409400
O       15.72336000      13.73524000       7.52639000       1.22708000      -0.74372400       0.85046800
O       18.59337000      12.94307000      11.04456000      -0.40113600      -0.64326100      -0.25467900
O        9.66833000      14.42879000      16.72807000       0.33112700      -1.10583400       0.11607900
O       13.25342000      13.84717000      20.79120000      -0.53049600       0.35732500      -0.35059700
O       13.88028000      18.89962000      20.76539000       0.14731100       0.13862600       0.15673000
O       12.97753000       9.46383000      12.96027000      -0.55464100      -5.57396300       0.74796800
O       15.85430000       8.23410000      17.21373000       0.49673300       0.19914800      -0.61352100
O       13.50807000      13.76908000      12.67812000       0.01814700      -0.05852000      -0.03333500
O       16.83073000      13.66438000      16.94295000      -0.04584800       1.00721800       0.19401700
O       13.85421000      18.96125000      12.93001000      -0.79227200      -0.32776900      -0.18285000
O       17.16722000      19.17786000      17.12970000       0.24366200       2.31932000       0.02175200
O       16.65915000      13.78917000       8.63522000      -0.69499200      -0.33749900      -0.99660500
O       20.38606000      14.32979000      13.31737000       0.45854800      -1.22725400      -0.14848700
O       17.10825000      19.16495000       9.38145000      -1.14732300      -0.02921700       0.52080900
O       12.48853000      10.72201000      20.71753000       0.08051300       0.79561000      -0.61205700
O        9.57647000      15.69480000      16.65975000      -0.19079700       1.13806600       0.11133400
O       13.07267000      15.72056000      20.97420000      -0.18144300      -1.09673500       0.02592200
O       12.93444000      10.69116000      12.81683000      -0.83670000       6.15638700      -0.93214900
O       16.17038000      10.99115000      17.03701000       0.38710000       0.22136300      -0.28466900
O       13.19061000      16.32298000      13.03960000       0.01063900      -0.40317100      -0.27415000
O       16.51753000      16.26588000      17.21406000       0.12143700      -0.71177100      -0.05128100
O       14.18235000      21.75088000      12.82384000      -0.19669900      -0.00685700       0.52518900
O       17.17289000      20.61414000      17.02805000      -0.23779100      -3.19437700      -0.09477200
O       16.61909000      16.45575000       9.14379000      -0.11154700      -0.80587300      -0.23404000
O       20.32122000      15.61243000      13.29783000      -0.17213900       1.15919800       0.24801300
