107
Lattice="30.0 0.0 0.0 0.0 30.0 0.0 0.0 0.0 30.0" Properties=species:S:1:pos:R:3:forces:R:3 energy=-810.27375014 stress="-13.13908 -0.48993 -0.40335 -0.48993 -16.17701 3.32769 -0.40335 3.32769 -15.19224" pbc="T T T"
Zr      12.89733000      12.65810000      14.81740000      -0.21698200      -0.11402400      -0.00162800
Zr      16.33316000      12.38129000      18.73877000      -0.11264200       0.70499200       0.44617200
Zr      13.40709000      17.95530000      14.76424000       0.40549300       0.17229000      -0.23977900
Zr      16.63474000      17.75460000      19.05209000       0.89755100      -0.25003600      -1.02521000
Zr      16.40541000      12.78632000      10.52372000       0.30381000       0.02130700      -0.11267800
Zr      17.06927000      17.41130000      10.82904000       0.49597000      -1.14295300       1.07478100
Zr      13.19587000      11.85200000      19.41251000       0.18725300      -0.13729400      -0.02044700
Zr      13.53716000      17.36405000      19.48563000      -0.46215300      -0.59314600      -0.75948300
Zr      13.32614000      12.43231000      11.13663000      -0.20300300       0.27930900      -0.27070400
Zr      16.63300000      12.11870000      15.18454000      -0.53001500      -0.08969700       0.05036100
Zr      13.71264000      17.54731000      11.25539000       0.20057700      -0.06610400       0.43366500
Zr      16.91658000      17.23252000      15.21309000       0.24345500       0.03113000       0.19034800
Zr      11.73146000      15.60765000      17.11343000      -0.20631600      -0.07994000       0.25225700
Zr      15.04319000      14.76185000      21.07818000       1.89486200      -0.60966800       0.16811300
Zr      15.27750000       9.87551000      12.95095000       0.31427900       0.17842800       0.23585100
Zr      15.08871000      15.17191000      13.30448000      -0.10009100      -0.00008400       0.22756200
Zr      18.26472000      15.18709000      17.34695000       0.21282400       0.36126400       0.41389800
Zr      15.44644000      20.13220000      13.50861000      -0.08762300       0.47396100      -0.09912900
Zr      14.45007000      10.03231000      16.52813000      -0.54961500       0.08388400      -0.34881000
Zr      11.68865000      14.93079000      12.56754000      -0.02518500      -0.25298400      -0.20318900
Zr      14.90529000      14.75323000      16.78999000      -0.07055900       0.02560600      -0.18252400
Zr      14.72629000      20.10625000      17.03033000      -0.54118400       0.39044900      -0.61700100
Zr      14.99678000      15.31644000       8.64532000       0.30325500      -0.24220600      -0.47991700
Zr      18.38291000      14.55023000      12.71186000      -0.01975900       0.23943000       0.02380200
O       13.19557000       8.66676000      15.02940000       0.15652300       0.05456400       0.01556600
O       12.87944000      14.22866000      16.13574000       0.07990600       0.14008500       0.19599400
O       16.58063000      13.95058000      20.10178000      -0.72984100      -0.07645800      -0.14654200
O       13.15573000      19.54914000      15.84458000       0.17181100       0.07932400       0.10218800
O       15.77434000      19.07312000      20.50964000       0.42559700       0.11722500      -0.08076000
O       15.78821000       8.59177000      11.79462000       0.10198200      -0.30181200      -0.04044000
O       16.33239000      14.18815000      11.90791000      -0.12065600      -0.18957100       0.08442400
O       19.44623000      13.31378000      16.82181000      -0.18673600      -0.63157200      -0.07082600
O       17.10121000      19.08274000      12.58349000      -0.14857100       0.03098200      -0.22338100
O       13.28950000      10.44806000      18.00661000       0.04240000      -0.20585000       0.22905100
O       10.61023000      16.75538000      13.17979000       0.01309500       0.46842200       0.04768000
O       13.59912000      15.81478000      18.04823000      -0.05823600       0.56980900       0.10547100
O       14.12249000      21.34188000      18.19983000      -0.01171900       0.07820500       0.19417000
O       16.84781000      10.51717000      14.05752000      -0.02621900      -0.24613500      -0.24567800
O       13.68583000      16.13293000       9.92336000      -0.37724400       0.41215000       0.32950800
O       17.04860000      15.78641000      13.88318000       0.09233600      -0.42222200      -0.13587900
O       16.75036000      21.36529000      14.83869000      -0.41173200       0.18552100       0.06454400
O       12.15392000      11.31428000      15.86054000       0.24479200       0.04632800      -0.01828000
O       15.13257000      11.48244000      19.94142000      -0.14037600      -0.15710600       0.28585900
O       12.05046000      16.89478000      15.78293000      -0.32700600       0.00054100      -0.13363900
O       15.48530000      16.50739000      20.07043000      -0.59534200       0.08887800       0.34666600
O       15.15805000      11.49132000      11.54309000      -0.07556100      -0.16777100      -0.12326000
O       18.96420000      12.13155000      16.58247000       0.42907900       0.67783900      -0.20380600
O       15.52032000      16.78072000      12.00175000      -0.31584500       0.17984600      -0.29581200
O       18.70973000      16.40372000      15.95632000      -0.01331700      -0.18553700       0.10652700
O       15.37214000      21.89217000      12.12793000       0.26704200      -0.17445000       0.04027400
O       14.70527000       8.00244000      17.87670000      -0.14349400       0.09044700      -0.15528800
O       11.24396000      13.73008000      13.92059000      -0.07241700       0.13010100       0.03684800
O       14.55941000      13.21909000      18.06599000       0.00419900       0.00721400       0.08287600
O       11.09935000      17.93613000      13.40486000      -0.26391800      -0.24600800       0.24647300
O       14.81561000      18.31867000      18.11274000      -0.15046200      -0.10417600       0.81714900
O       14.45593000      13.29426000       9.75158000      -0.07763100      -0.15909500       0.35422600
O       17.88085000      13.16643000      14.11044000       0.56551900       0.60321200      -0.35619600
O       15.26211000      18.94515000      10.25210000      -0.91029500      -0.20142400       0.53801000
O       17.79857000      18.60111000      13.72529000       0.18897800      -0.15409600       0.14356800
O       11.00812000      12.24565000      18.69412000       0.12943400       0.12841800      -0.03576100
O       11.46414000      17.07151000      18.99475000       0.04759600      -0.17156700      -0.02866000
O       14.97272000      15.59299000      23.07678000      -0.02217500       1.02670000      -0.13046300
O       11.29214000      12.33791000      10.65852000       0.11419600      -0.01894000      -0.01591000
O       14.56962000      11.26956000      14.89598000      -0.02267800       0.04854700      -0.24831700
O       18.52328000      11.66337000      18.39594000       0.20527700       0.01263300      -0.04981500
O       11.36142000      17.17714000      11.06442000       0.28822600       0.10475100      -0.29816100
O       14.83738000      16.33829000      15.11476000       0.16398000      -0.00197700       0.06435200
O       18.45348000      16.31870000      19.18059000      -0.47828200      -0.29824400      -0.03691800
O       15.41412000      21.53615000      15.14947000       0.26431000      -0.02593100      -0.11201200
O       18.13219000      11.69188000      11.03421000      -0.06094200       0.02089400       0.04135100
O       14.67815000      16.20653000       7.03475000      -0.11753200      -0.34626500      -0.04364600
O       18.51727000      16.13768000      11.39567000      -0.48604300       0.27992000       0.07084300
O       11.23695000      13.51247000      18.62235000      -0.34430500       0.03085600      -0.07013100
O       15.18914000      14.28595000      23.17411000       0.16262900      -0.92052900      -0.17124900
O       11.72676000      18.45699000      19.14325000       0.44720300      -0.15027600      -0.03297400
O       14.49567000       8.41062000      14.86572000       0.27911600      -0.11226000      -0.16889800
O       11.52305000      13.75654000      10.81668000       0.08837100       0.09161700       0.00214100
O       15.13148000      13.70656000      14.88507000       0.02835000       0.09942300       0.04286700
O       18.82588000      12.80604000      18.93636000       0.07475800       0.16449300       0.25088200
O       11.62056000      18.38237000      11.58423000      -0.17092600      -0.41370400      -0.10886600
O       15.50010000      18.76141000      15.06288000      -0.12220200       0.03693600       0.08737500
O       18.79376000      17.70237000      19.14590000      -0.43904600       0.44058500      -0.18996300
O       15.86979000      13.58643000       7.50746000      -0.05209600      -0.08272700      -0.28001800
O       18.52392000      13.05592000      10.96915000      -0.00931000       0.04264200      -0.06612600
O        9.87677000      14.42981000      16.78834000       0.24999000      -0.10050500       0.09438700
O       13.21587000      14.00002000      20.66886000      -0.37636900      -0.33308900      -0.16209400
O       14.45114000      18.94071000      20.71777000      -0.28696700      -0.11699600       0.15474800
O       12.99127000       9.63798000      13.04743000      -0.03439400       0.62003800      -0.09229300
O       15.69207000       8.23868000      17.06887000      -0.08200100      -0.09480300      -0.09424700
O       13.52155000      13.73030000      12.67517000       0.21130400       0.10904200      -0.08187100
O       16.82023000      13.77544000      16.98097000       0.14997200      -0.00916900      -0.07262300
O       13.90904000      18.96247000      12.94880000      -0.02734900      -0.04777100      -0.15744100
O       17.37354000      19.04199000      17.19500000       0.34299200      -0.41241800       0.11380700
O       16.76488000      13.63473000       8.52260000       0.15622800      -0.03929600       0.08205700
O       20.52245000      14.31942000      13.15506000       0.14011900      -0.05215600      -0.20861600
O       16.49432000      19.11362000       9.72048000       0.54434100       0.69819900      -0.51551400
O       12.24913000      10.93774000      20.73135000      -0.32237100       0.18235000       0.21646300
O        9.51564000      15.70381000      16.82089000       0.04058100       0.04035200       0.28370100
O       12.98758000      15.41794000      20.84028000      -0.04381600       0.46376600      -0.12593100
O       12.67719000      10.93879000      12.75111000      -0.14317000      -0.25262300       0.16403700
O       16.14615000      11.05991000      17.00836000      -0.06561800      -0.07258200       0.25504100
O       13.24218000      16.29963000      12.96099000      -0.06086600      -0.14186300      -0.19848600
O       16.48819000      16.33154000      17.24457000      -0.20476900      -0.00949600       0.23665000
O       14.29413000      21.85454000      12.90397000       0.17371400      -0.04132400       0.09604500
O       17.00720000      20.30222000      16.91610000      -0.12166100      -0.02629300       0.09402400
O       16.56894000      16.35750000       9.30264000       0.01072000       0.02956900      -0.07897000
O       20.18680000      15.55272000      13.48244000      -0.17936100      -0.10025200       0.23160600
