74
Lattice="30.0 0.0 0.0 0.0 22.52911 0.0 0.0 0.0 30.0" Properties=species:S:1:pos:R:3:forces:R:3 energy=-668.06802444 pbc="T T T"
Zr      15.57399000       2.76671000      16.21491000       1.41328000      -0.19310800      -2.08297200
Zr      13.85925000       0.77153000      11.00467000       0.74754300      -0.61867000       0.76827100
Zr      13.34099000       0.21259000      17.41137000       0.65140100       0.55852300      -0.16537200
Zr      11.68664000      18.46804000      13.41682000       0.14505200      -1.14428700      -1.44878100
Zr      19.43638000       0.00199000      13.69982000      -2.04683600       0.52020800      -2.40874600
Zr      18.57918000      18.50902000      16.65593000      -0.99165600      -0.53261500       1.01324800
Zr      11.65800000       2.72658000      15.08830000       4.29967300       1.30436600      -3.28298000
Zr       9.72972000      20.72077000      14.26897000      -1.65684200       2.60482900       0.56994600
Zr      16.69527000       5.72534000      17.35083000       0.52321900      -0.44085900       0.10482400
Zr      16.10815000       1.78130000      13.07994000      -0.06005500       0.18412100       0.95561400
Zr      16.55357000       0.35955000      19.05322000      -0.29117300       0.94045500       0.21348700
Zr      15.62796000      18.34518000      12.39576000       1.09206500      -0.01343300       0.06315700
Zr      10.26507000       0.85039000      16.93978000      -0.27564700     -19.32853100       3.96824400
Zr      11.01561000       1.33948000      12.34057000       0.51370000      -1.71383200       1.40045400
Zr      15.90840000       8.29064000      15.70668000      -0.10719700       0.56525700      -0.15749900
Zr      16.35596000      21.09511000      15.75532000       0.04338400      -0.42658300      -1.26201200
Zr      13.34910000      20.04784000      10.95817000      -0.38547800       2.02836100      -0.07859800
Zr      16.82521000      15.10327000      16.46943000       0.98640600      -0.51018100      -0.18169800
Zr      14.49752000       5.46080000      14.99287000      -0.46049200      -1.09303400      -0.16453300
Zr      18.05844000       2.98855000      18.51786000      -0.60768600       0.70939700      -0.57459100
Zr      13.18206000      21.46230000      14.02951000       2.59639900       3.95974400      -1.75806000
Zr      14.15992000      15.61020000      14.14386000      -0.04795200      -1.23950300       0.70871400
Zr      19.31497000      22.19946000      16.78270000       0.41170600       0.24860300       0.39693800
Zr      18.46525000      19.21958000      13.22807000      -0.19427800       1.70124400      -0.94876400
O       11.92732000       0.29635000      15.76077000      -1.32413600       1.30510400       0.04121600
O       12.08133000       1.68115000      10.70988000      -0.16856600       0.04532800       0.50493900
O       15.37227000      16.04896000      15.67928000      -0.76216000       0.77830000      -0.47086700
O       18.28656000      21.52287000      15.05288000      -0.15843200       0.40105400       0.09438100
O       17.39482000      13.67868000      15.14021000      -0.14477200       0.44170000      -0.41207900
O       11.69261000      20.30740000      14.45476000      -0.04425500      -1.12326500       0.63215600
O       15.51827000       3.60993000      14.16076000      -0.80617800       0.49168100       0.86394100
O       17.19843000      21.87624000      17.46124000       0.58410300       0.32180700       0.08473300
O       16.57282000      19.77618000      13.77462000       0.35652900      -0.25308100      -0.00159300
O       11.57210000      22.48131000      18.22895000       0.16841700       1.47712400       0.75746900
O       12.50290000      21.86025000      12.09393000       0.09837100      -0.28152700       0.16430600
O       17.48519000       7.36852000      16.46261000      -0.16118400      -0.10520300      -0.32630700
O       16.76037000      19.30965000      16.54473000       0.33923700       0.47812100      -0.07435400
O       14.90096000      18.91310000      10.69513000       0.11862500      -0.47150100      -0.45732900
O       16.19240000       2.04976000      18.09406000       0.73778400       0.19913100      -0.11205800
O       12.61515000       1.47033000      13.65228000      -0.95448800      -0.08128300      -0.41021400
O        9.77543000      18.79992000      13.80710000       0.19353700      -1.01004100      -0.44943400
O       19.25451000       1.60287000      17.57395000      -0.50370400      -0.92850900       0.15842300
O       18.10165000       1.43108000      13.02140000       0.69504000      -1.26438500       0.28749700
O       18.08963000      16.56645000      17.17975000       0.20705000       0.81308900      -0.00564000
O       17.60093000      18.17106000      11.84142000      -0.41733500       0.29257400       0.76409300
O        9.21328000      21.41866000      16.01006000       0.62467700       1.53040700       0.08181400
O       12.68205000       4.48829000      15.18764000       0.33194500      -0.17042200      -0.16180900
O       17.81238000       1.67553000      19.98427000      -0.46435700      -0.69251700       0.30730000
O       14.36080000      21.59935000      15.82409000      -0.30992500      -0.82440400       0.39601400
O       11.75731000      18.96138000      11.46011000      -0.19394400      -0.62412700       0.69736800
O       14.31684000      13.61595000      14.34402000       0.74154700      -0.26485900       0.05826600
O       18.94078000      18.14494000      14.79519000       0.59773900       0.11164600       0.08430600
O       10.20824000       2.37269000      16.40651000      -1.18968700      13.28033100      -2.97842600
O       15.20372000       7.22050000      14.19611000       0.26141500      -0.26664900       0.39288600
O       17.44085000       4.98986000      19.06874000       0.12145300      -0.95649000      -0.86629800
O       16.09625000       1.12294000      15.13190000       0.24727900       0.17062100       0.80072100
O       13.94120000      21.69248000       9.80118000      -0.22743400       0.02499500       1.15201600
O       15.25567000      16.40351000      12.77301000      -0.04579400       0.91410300      -0.36048600
O       19.62244000      20.84717000      12.62337000      -0.47888300      -0.21381300       0.89309100
O       10.44399000       2.83010000      13.56968000      -0.33137000       0.04288800      -0.21525400
O       17.39439000       3.95776000      16.56172000      -0.24443300      -0.50197700       1.19371900
O       14.89276000       0.03962000      12.98100000      -0.27925400       0.36612200      -0.92169200
O       14.66314000      22.40111000      19.00926000      -0.30580800       0.09137200      -0.49032100
O       12.41540000      16.61418000      13.94829000      -0.03122800       1.22682000      -0.02308400
O       20.47064000       0.37104000      15.25877000       0.52023100      -0.39224700       0.98722200
O        9.67804000      22.23059000      12.95242000       1.13641200       0.51579000       0.03913100
O       14.93007000       6.85843000      16.83011000      -0.07736300      -0.22446800      -0.55855700
O       15.39370000       2.18279000      11.24241000      -1.07550600      -1.42606500       0.27652800
O       13.77381000       2.13660000      16.82527000      -1.47781900      -1.18541300       0.47789100
O       13.89994000      19.64403000      12.99533000      -0.70258100       0.01952300       0.92873900
O       19.60355000      20.23000000      17.35458000      -0.30314600       0.27759700      -0.50158400
Zr      15.80703000      12.49700000      15.31542000      -0.46390700       0.14503300       0.39699000
O       15.95116000      10.41651000      15.54021000      -0.31882200      -0.13887200      -0.05133400
O       15.70941000      13.52484000      16.98835000      -0.41726400      -0.43501100       0.68174700
