74
Lattice="30.0 0.0 0.0 0.0 22.52911 0.0 0.0 0.0 30.0" Properties=species:S:1:pos:R:3:forces:R:3 energy=-669.19424867 pbc="T T T"
Zr      15.57288000       2.76672000      16.21387000       1.53050200      -0.03928800      -1.84124800
Zr      13.85592000       0.76869000      11.00433000       0.70333000      -0.62357700       0.73353500
Zr      13.34133000       0.21835000      17.40729000       0.91910400       0.56969900      -0.08114500
Zr      11.68680000      18.46503000      13.41516000       0.20506300      -1.00874500      -1.33329000
Zr      19.43744000       0.00086000      13.70014000      -1.91516700       0.66195000      -2.14422900
Zr      18.57923000      18.50350000      16.65627000      -0.95553400      -0.48202100       1.07371500
Zr      11.66130000       2.73066000      15.08647000       3.87396800       1.51248900      -3.30488100
Zr       9.73431000      20.72321000      14.27181000      -1.69059900       2.39475200       0.11950400
Zr      16.69008000       5.72833000      17.35302000       0.65020500      -0.58758600       0.24351300
Zr      16.11221000       1.78307000      13.08289000      -0.28739200       0.19785900       0.86308400
Zr      16.55765000       0.36151000      19.04721000      -0.31330800       0.89418900       0.54702500
Zr      15.62666000      18.34359000      12.39648000       1.19578400      -0.02711400       0.27091800
Zr      10.26940000       0.83395000      16.93911000      -0.27654900     -13.23813700       1.66200800
Zr      11.01361000       1.33824000      12.33880000       0.20204200      -1.46855700       1.56777400
Zr      15.90419000       8.29316000      15.70672000       0.01753600       0.44994600      -0.20920400
Zr      16.35488000      21.09548000      15.74859000       0.17845200      -0.42007600      -1.05565100
Zr      13.34907000      20.04195000      10.95913000      -0.74922700       2.49287000      -0.01046600
Zr      16.82355000      15.10343000      16.46788000       0.99782400      -0.55203800      -0.21206300
Zr      14.50323000       5.46354000      14.99707000      -0.61984400      -1.17067700      -0.13829400
Zr      18.05803000       2.98896000      18.51495000      -0.60096700       0.71282300      -0.52941700
Zr      13.18171000      21.47009000      14.03281000       2.27632400       3.72724400      -1.84491000
Zr      14.15408000      15.61504000      14.14229000       0.37016100      -1.67263500       0.89848600
Zr      19.32025000      22.19560000      16.78250000       0.39977100       0.37109100       0.50748900
Zr      18.46478000      19.22078000      13.22839000      -0.22860200       1.56697100      -0.81330800
O       11.92697000       0.29084000      15.75456000      -1.37416900       1.25644500       0.20639100
O       12.07331000       1.68076000      10.71394000       0.00558000       0.00191700       0.37534700
O       15.36864000      16.05400000      15.69158000      -0.86682700       0.74070800      -0.61217700
O       18.29384000      21.52994000      15.05880000      -0.23674600       0.35631900       0.00983800
O       17.38553000      13.67427000      15.13311000       0.01809800       0.61555300      -0.39675700
O       11.68075000      20.29664000      14.45468000       0.35814800      -0.82986000       0.63616100
O       15.51161000       3.61099000      14.18030000      -0.74155700       0.42954400       0.68223600
O       17.18570000      21.88816000      17.46911000       0.77115900       0.05514900      -0.36161700
O       16.56670000      19.78308000      13.77930000       0.43134200      -0.33094500      -0.08130100
O       11.55995000      22.47900000      18.22071000       0.03885400       1.48809500       0.72357000
O       12.50807000      21.83967000      12.09217000       0.11695600      -0.18181300       0.16930900
O       17.48682000       7.35332000      16.45886000      -0.24545800       0.03020500      -0.39374600
O       16.76834000      19.31961000      16.55507000       0.28135500       0.48123500      -0.14870300
O       14.89053000      18.92317000      10.70925000       0.48589000      -0.76084600      -0.61151700
O       16.18924000       2.04317000      18.10071000       0.68670400       0.42810900      -0.27042600
O       12.59604000       1.46164000      13.65021000      -0.72048200      -0.21283900      -0.41996600
O        9.78489000      18.79002000      13.80639000       0.00599700      -0.82081300      -0.38827400
O       19.25325000       1.60228000      17.56880000      -0.46658000      -0.98119900       0.11608900
O       18.09483000       1.43653000      13.02644000       0.80748400      -1.31691200       0.28103100
O       18.08661000      16.56956000      17.18937000       0.18735800       0.76130800      -0.04138100
O       17.61068000      18.16597000      11.84071000      -0.57315600       0.37540300       0.82711900
O        9.22246000      21.41683000      16.00864000       0.64078400       1.71503800       0.35726700
O       12.68489000       4.49974000      15.18811000       0.40192100      -0.17354200      -0.17586300
O       17.82086000       1.66527000      19.97553000      -0.39410500      -0.61496800       0.36907800
O       14.36498000      21.59239000      15.82402000      -0.40408000      -0.71089600       0.42735000
O       11.75479000      18.97164000      11.47156000      -0.25792400      -0.73476400       0.55361000
O       14.31881000      13.59691000      14.35064000       0.62249500       0.12540000      -0.01787700
O       18.93919000      18.13327000      14.79530000       0.55278800       0.22212100      -0.05356800
O       10.19942000       2.44383000      16.37664000      -1.02651600       7.10637800      -0.77962300
O       15.20233000       7.20973000      14.19360000       0.31772500      -0.08497700       0.44246900
O       17.45429000       4.98947000      19.07636000       0.04923700      -0.93925200      -1.00535400
O       16.10324000       1.13217000      15.14633000       0.22803200      -0.00955900       0.56647900
O       13.94114000      21.69310000       9.79887000      -0.22794900      -0.01553500       1.16484000
O       15.27313000      16.39690000      12.78123000      -0.10624700       1.01365700      -0.38024000
O       19.60966000      20.85156000      12.61944000      -0.43514800      -0.22239200       0.88327700
O       10.43007000       2.83715000      13.56320000      -0.05352700      -0.11558400      -0.24655400
O       17.39368000       3.94812000      16.56855000      -0.29214700      -0.42475700       1.19092400
O       14.88898000       0.03884000      12.97561000      -0.22813500       0.40889600      -0.78109400
O       14.66772000      22.39817000      19.00138000      -0.61700300       0.07427600      -0.59021300
O       12.43398000      16.61543000      13.95266000      -0.21576300       1.22864200      -0.05759100
O       20.48572000       0.36542000      15.26335000       0.35134700      -0.46863100       0.74426800
O        9.68082000      22.23463000      12.94114000       1.09533200       0.29052400       0.24059300
O       14.93417000       6.86589000      16.83258000      -0.13853100      -0.19949900      -0.52520800
O       15.39335000       2.17445000      11.23396000      -0.99653500      -1.40980800       0.44922900
O       13.77611000       2.14667000      16.83488000      -1.61828100      -1.38083400       0.48033100
O       13.88561000      19.64743000      13.00868000      -0.51677100      -0.13426000       0.85359900
O       19.60238000      20.22739000      17.35480000      -0.29463000       0.25566800      -0.50569400
Zr      15.80603000      12.49763000      15.31763000      -0.55622700      -0.06549700       0.18565800
O       15.94540000      10.41682000      15.54170000      -0.30051200      -0.29965900      -0.02940500
O       15.70975000      13.52175000      16.97721000      -0.43819700      -0.28469900       0.96899600
