74
Lattice="30.0 0.0 0.0 0.0 22.52911 0.0 0.0 0.0 30.0" Properties=species:S:1:pos:R:3:forces:R:3 energy=-670.40748973 pbc="T T T"
Zr      15.57300000       2.76680000      16.20864000       1.45343000       0.24635900      -1.02505600
Zr      13.84948000       0.76116000      11.00483000       0.41552500      -0.60546600       0.70351800
Zr      13.34390000       0.23243000      17.39796000       1.39312200       0.51187100       0.14854900
Zr      11.68756000      18.45655000      13.40922000       0.33620600      -0.66369500      -0.94171700
Zr      19.43673000      22.52862000      13.69749000      -1.40426800       0.86054400      -1.28972600
Zr      18.57778000      18.49020000      16.65891000      -0.77738600      -0.22882900       1.05578900
Zr      11.67499000       2.74266000      15.07675000       2.38291600       1.85791500      -2.73217700
Zr       9.74186000      20.73265000      14.27810000      -1.52173100       1.70173600      -0.79412000
Zr      16.67947000       5.73400000      17.35851000       0.82878300      -0.80793800       0.45476300
Zr      16.12077000       1.78744000      13.09099000      -0.71912600       0.13228300       0.66956900
Zr      16.56634000       0.36745000      19.03476000      -0.43188000       0.70969300       1.22991900
Zr      15.62581000      18.33993000      12.39876000       1.31136900       0.00546800       0.68833100
Zr      10.27873000       0.77770000      16.93897000      -0.41809500      -4.31856600      -1.68344700
Zr      11.00911000       1.33311000      12.33757000      -0.60072300      -0.83399500       1.80832100
Zr      15.89472000       8.29957000      15.70643000       0.23784200       0.18115200      -0.32644300
Zr      16.35286000      21.09562000      15.73167000       0.48074900      -0.42452800      -0.58060000
Zr      13.34741000      20.03316000      10.96139000      -1.49966700       3.15791500       0.23201400
Zr      16.82143000      15.10282000      16.46393000       0.76196800      -0.49574400      -0.33383100
Zr      14.51498000       5.46770000      15.00641000      -0.98435500      -1.28083200      -0.01163300
Zr      18.05608000       2.99108000      18.50750000      -0.52997900       0.55430000      -0.37062100
Zr      13.18452000      21.49397000      14.03708000       1.45706800       3.01521500      -1.95388500
Zr      14.14179000      15.62288000      14.14037000       1.27230000      -2.27308600       1.10526500
Zr      19.33293000      22.18756000      16.78300000       0.40941400       0.59385300       0.69566600
Zr      18.46328000      19.22606000      13.22788000      -0.25611700       1.19880800      -0.36636000
O       11.91259000       0.29028000      15.74315000      -1.36295900       1.06176200       0.46161600
O       12.05606000       1.67968000      10.72610000       0.44768800      -0.09366100       0.01711300
O       15.35187000      16.07227000      15.71316000      -0.79915400       0.47916900      -0.72126300
O       18.30765000      21.54931000      15.07184000      -0.42853600       0.26753200      -0.23908600
O       17.36528000      13.67109000      15.11326000       0.30406300       0.97445600      -0.28202400
O       11.65897000      20.26569000      14.46077000       1.04475400      -0.01998400       0.65211400
O       15.48964000       3.61722000      14.23036000      -0.51909400       0.22422600       0.15846300
O       17.16506000      21.91454000      17.48140000       1.06991000      -0.49704300      -1.24778300
O       16.55727000      19.79527000      13.78885000       0.52471800      -0.41479600      -0.20101500
O       11.53209000      22.48810000      18.20903000      -0.16251900       1.29624800       0.73763400
O       12.52103000      21.79159000      12.08982000       0.13892500       0.04357000       0.15499000
O       17.48785000       7.31964000      16.44623000      -0.34695400       0.28203600      -0.48545000
O       16.78887000      19.34693000      16.57677000       0.11630300       0.43768900      -0.29797800
O       14.87312000      18.93743000      10.73477000       1.10728700      -1.22083900      -0.84313500
O       16.18842000       2.03348000      18.11243000       0.49010000       0.89688600      -0.58993900
O       12.54696000       1.43901000      13.64144000       0.00311700      -0.57153700      -0.35322700
O        9.80540000      18.76066000      13.80136000      -0.50402200      -0.21311500      -0.19211900
O       19.24595000       1.59127000      17.55814000      -0.39182800      -0.94780000       0.08034100
O       18.08744000       1.43600000      13.04051000       0.81513800      -1.25752600       0.20192500
O       18.08134000      16.58354000      17.21066000       0.05048500       0.44632200      -0.12219300
O       17.62663000      18.15833000      11.84728000      -0.81660400       0.46542600       0.80279300
O        9.24970000      21.43026000      16.01020000       0.66261300       2.00815000       0.88144700
O       12.69581000       4.52425000      15.18735000       0.62623300      -0.09788900      -0.22939900
O       17.83661000       1.63639000      19.95950000      -0.22704400      -0.37802500       0.45789600
O       14.37010000      21.57021000      15.82811000      -0.57445500      -0.41669700       0.41951800
O       11.74644000      18.98744000      11.50200000      -0.27113500      -0.81979900       0.00981800
O       14.32878000      13.55640000      14.36514000       0.32837900       0.78200700      -0.18556400
O       18.94075000      18.10946000      14.79446000       0.42450100       0.47022800      -0.27543700
O       10.17059000       2.65322000      16.30850000      -0.30125400      -1.58457900       1.94786400
O       15.20252000       7.18529000      14.19228000       0.42624000       0.32890100       0.43482000
O       17.48503000       4.97953000      19.08342000      -0.07987100      -0.83119000      -1.12862500
O       16.12127000       1.15217000      15.18341000       0.17817700      -0.41940100      -0.07104800
O       13.93884000      21.69408000       9.80487000      -0.18543700      -0.16083700       1.02940500
O       15.31131000      16.39196000      12.79631000      -0.35466300       1.01684800      -0.28257700
O       19.57662000      20.85939000      12.61894000      -0.28229200      -0.19292600       0.73648700
O       10.39919000       2.85128000      13.54565000       0.53303100      -0.46205700      -0.41950000
O       17.38899000       3.92237000      16.59548000      -0.37092200      -0.27390000       0.99852100
O       14.87848000       0.04130000      12.95650000      -0.06063500       0.50786900      -0.38303400
O       14.67083000      22.39218000      18.97726000      -1.12633800       0.06898500      -0.74864500
O       12.47335000      16.63006000      13.96195000      -0.52132100       1.04367900      -0.08964000
O       20.52254000       0.34769000      15.27968000      -0.09100000      -0.60813500       0.06973800
O        9.69757000      22.24547000      12.91883000       0.90675500      -0.27678200       0.68408700
O       14.94187000       6.88097000      16.83328000      -0.26259700      -0.17062500      -0.38781200
O       15.38340000       2.14202000      11.21993000      -0.65266400      -1.17524300       0.79427000
O       13.76545000       2.15545000      16.86122000      -1.50105800      -1.54292000       0.32856900
O       13.84893000      19.65324000      13.04685000      -0.05329000      -0.40250300       0.56152800
O       19.59691000      20.22375000      17.35038000      -0.25030800       0.11337600      -0.46099800
Zr      15.80272000      12.49875000      15.32282000      -0.70330400      -0.56329300      -0.18666900
O       15.92944000      10.41398000      15.54490000      -0.25314700      -0.53016600       0.00342300
O       15.70636000      13.51280000      16.96253000      -0.34066900       0.13223900       1.42107000
