74
Lattice="30.0 0.0 0.0 0.0 22.52911 0.0 0.0 0.0 30.0" Properties=species:S:1:pos:R:3:forces:R:3 energy=-672.00487283 pbc="T T T"
Zr      15.58422000       2.76947000      16.19525000       0.45420900       0.07519300       0.39905000
Zr      13.84128000       0.74398000      11.01236000      -0.35750700      -0.59351600       0.87137600
Zr      13.35926000       0.25685000      17.38600000       0.17787200      -0.71197000       0.53717300
Zr      11.69192000      18.43922000      13.39383000       0.22027700       0.29809500      -0.00183800
Zr      19.42557000       0.00473000      13.68540000      -0.26595000       0.41731200       0.09798200
Zr      18.56953000      18.46945000      16.67111000      -0.32599900       0.59833400       0.27675600
Zr      11.70951000       2.77846000      15.04227000      -0.79714800       1.47409300      -0.38779000
Zr       9.74240000      20.75948000      14.28033000      -0.23310400       0.28243100      -0.34464300
Zr      16.67021000       5.73562000      17.37082000       0.57281400      -0.57363500       0.10498800
Zr      16.12712000       1.79430000      13.10929000      -0.69089200      -0.40217700       0.53789200
Zr      16.57486000       0.38166000      19.02581000      -0.84695000       0.03472000       0.24989100
Zr      15.63594000      18.33528000      12.40935000       0.81206600       0.55143300       0.73763100
Zr      10.28694000       0.66086000      16.92101000      -1.30205600      -0.10514400      -1.91082900
Zr      10.99426000       1.31946000      12.35079000      -1.07812200      -0.24356300       0.93334300
Zr      15.88251000       8.30988000      15.70272000       0.28348800      -0.34232900      -0.37687900
Zr      16.35469000      21.09204000      15.70128000       0.50578100      -0.30266300      -0.23849600
Zr      13.33156000      20.04616000      10.96838000      -0.76742100       1.58842600       0.75301700
Zr      16.82269000      15.09874000      16.45428000      -0.23123900       0.18696700      -0.40555600
Zr      14.52401000       5.46329000      15.02157000      -0.82376100      -0.71583700       0.21387500
Zr      18.04905000       2.99781000      18.49323000      -0.10317000      -0.23588700      -0.07882100
Zr      13.19945000      21.55508000      14.02684000       0.46496400       1.56653800      -1.26147600
Zr      14.13621000      15.61530000      14.14678000       1.62853700      -1.43242500       0.67281500
Zr      19.35624000      22.18043000      16.78974000       0.25384300       0.34100900       0.28149900
Zr      18.45879000      19.24380000      13.22605000      -0.14698000       0.64871900       0.51839200
O       11.83134000       0.33822000      15.74438000      -0.11368200       0.52076100      -0.20683700
O       12.05769000       1.67158000      10.74112000       0.51740500      -0.17013700      -0.09673900
O       15.29549000      16.11430000      15.71368000       0.06824000      -0.29900200      -0.28732000
O       18.30407000      21.59205000      15.07444000      -0.50374000       0.18181100      -0.47270000
O       17.34734000      13.71753000      15.07368000      -0.07635800       0.68526500       0.13784200
O       11.67539000      20.23349000      14.50208000       0.32790600       0.89784000       0.33738600
O       15.43534000       3.63236000      14.30173000      -0.02766800      -0.17217500      -0.75418800
O       17.18576000      21.93007000      17.43802000       0.58799600      -0.07117500      -0.36317600
O       16.56823000      19.79529000      13.79410000       0.29336000      -0.11868800      -0.04248100
O       11.49130000       0.02939000      18.23530000       0.70375200       0.47642400       0.99705900
O       12.54666000      21.72365000      12.09151000      -0.05296200       0.33065700      -0.10589100
O       17.47271000       7.28340000      16.40274000      -0.17460800       0.22715700      -0.26149000
O       16.82363000      19.40664000      16.59378000      -0.05972600      -0.10309100      -0.28931500
O       14.89480000      18.90328000      10.73193000       0.02192000      -0.35022800      -0.51375100
O       16.20740000       2.06420000      18.10162000       0.13243900       0.41020700      -0.15658100
O       12.48865000       1.37101000      13.61748000       0.99419900      -0.58326200       0.20418000
O        9.80283000      18.72119000      13.78860000      -0.73960400       0.95712600       0.11485400
O       19.21549000       1.53271000      17.54819000      -0.28199000      -0.21912900       0.31369800
O       18.10629000       1.38006000      13.06820000      -0.24369500      -0.28630200      -0.19898900
O       18.07022000      16.61501000      17.23638000      -0.31338700      -0.49084800      -0.16655400
O       17.60912000      18.16743000      11.89130000      -0.58035300       0.11650200       0.10584700
O        9.32386000      21.54798000      16.05382000       0.20116200       0.84991100       0.07328900
O       12.74418000       4.55584000      15.17308000       0.34384700      -0.19608900      -0.26648600
O       17.85018000       1.57664000      19.95787000      -0.27741400      -0.08253200       0.32972100
O       14.34811000      21.52089000      15.85170000      -0.40072400       0.02882100       0.00004100
O       11.72410000      18.97446000      11.53174000       0.08520500      -0.40370300      -1.04871500
O       14.35687000      13.53753000      14.37635000       0.14168200       0.66493200      -0.19125200
O       18.96216000      18.10044000      14.78166000       0.21258600       0.61269900       0.11321500
O       10.13958000       2.86271000      16.28970000       1.60977100      -3.38275600       0.70805300
O       15.22544000       7.17043000      14.20839000       0.34688700       0.54492300       0.06234700
O       17.52772000       4.92694000      19.04217000      -0.10441800      -0.24115300      -0.42192300
O       16.15603000       1.15704000      15.22344000      -0.08048200      -0.42306000      -0.80896900
O       13.92802000      21.68218000       9.85790000       0.01455600      -0.44434800       0.18493200
O       15.34375000      16.42596000      12.81216000      -0.87291000       0.00827000       0.22718200
O       19.51645000      20.86395000      12.64797000       0.17684900      -0.00239300       0.04372500
O       10.38745000       2.84691000      13.49653000       0.89735800      -0.38792500      -0.30811200
O       17.36325000       3.87104000      16.67648000      -0.23092300       0.00899100      -0.09453400
O       14.86322000       0.07205000      12.91764000       0.19673600       0.40547800       0.36450000
O       14.62459000      22.38886000      18.90438000      -0.01336400       0.24936900      -0.16767100
O       12.51000000      16.69336000      13.97336000      -0.15551300      -0.07804500       0.06093700
O       20.56801000       0.28879000      15.29637000      -0.40635500      -0.46083500      -0.54108400
O        9.76314000      22.23768000      12.92510000       0.31570200      -0.74438200       0.79926600
O       14.93868000       6.89466000      16.81949000      -0.29293000      -0.28478200       0.00641100
O       15.34776000       2.04498000      11.24231000       0.36712600       0.03374700       0.76714300
O       13.68965000       2.10327000      16.90812000       0.08480800       0.06524700      -0.59174500
O       13.79805000      19.64055000      13.12441000       0.44429700      -0.32594500      -0.25893600
O       19.57748000      20.21762000      17.32298000      -0.08001400      -0.32612400      -0.16592400
Zr      15.79143000      12.49486000      15.32961000      -0.48347300      -0.35271600       0.26026500
O       15.89242000      10.38707000      15.54946000      -0.18041600       0.08024100      -0.06799100
O       15.69129000      13.51105000      17.00669000       0.26479900       0.24282400       0.45802300
