74
Lattice="30.0 0.0 0.0 0.0 22.52911 0.0 0.0 0.0 30.0" Properties=species:S:1:pos:R:3:forces:R:3 energy=-673.18691286 pbc="T T T"
Zr      15.59802000       2.77106000      16.19126000      -0.22313100      -0.70130200       0.00116100
Zr      13.83219000       0.72445000      11.03047000       0.00908100      -0.52026900       0.96067300
Zr      13.36915000       0.26046000      17.38623000      -1.57804300      -1.06296400       0.20715300
Zr      11.69751000      18.43423000      13.38321000      -0.08497900       1.19607000      -0.14868900
Zr      19.41416000       0.01380000      13.67805000      -0.01656100      -0.13566800      -0.10069900
Zr      18.55926000      18.46540000      16.68288000      -0.19171800       0.50438500      -0.10639000
Zr      11.72137000       2.81997000      15.01531000      -0.51310800      -0.48511400       0.78580200
Zr       9.73923000      20.77894000      14.27823000       0.61210600      -1.08228900       1.16832200
Zr      16.67310000       5.72821000      17.37889000       0.11618600      -0.10820400      -0.63794400
Zr      16.12076000       1.79258000      13.12910000      -0.24524200      -0.41975800       0.70730500
Zr      16.56741000       0.39090000      19.02348000      -0.66024500      -0.32401800      -0.94438600
Zr      15.65246000      18.34102000      12.42558000      -0.77749000       0.75571200      -0.15910400
Zr      10.27562000       0.59127000      16.88619000       0.47946500       2.53038900       1.13306500
Zr      10.97196000       1.30552000      12.37241000       0.57213700      -1.07332900      -0.19662900
Zr      15.87909000       8.31120000      15.69514000      -0.01028100      -0.31176200      -0.08590600
Zr      16.36257000      21.08578000      15.67888000      -0.11549200       0.09176500      -0.27590500
Zr      13.31103000      20.07644000      10.98388000       0.36475600      -0.85166500       0.79297200
Zr      16.82020000      15.09959000      16.44311000      -0.62267900       0.78003200       0.10482700
Zr      14.51825000       5.45039000      15.03333000       0.25970400       0.14071400      -0.04295800
Zr      18.04341000       2.99753000      18.48368000       0.22619300      -1.03033500       0.22484400
Zr      13.21629000      21.61664000      14.00228000       0.24929400       0.98294700      -0.08739200
Zr      14.15629000      15.58958000      14.16089000       0.51705200      -0.15549100       0.27566000
Zr      19.37360000      22.18039000      16.79727000      -0.18316600      -0.42694100      -0.44235000
Zr      18.45415000      19.26461000      13.23226000       0.12504000       0.35039100       0.57122700
O       11.77902000       0.41057000      15.72452000       1.11189400      -0.12565900      -0.65180300
O       12.09530000       1.65353000      10.74687000      -0.37481300      -0.01971200       0.34875200
O       15.26706000      16.11742000      15.69144000       0.50816900      -0.28810500       0.28888300
O       18.26117000      21.63342000      15.03936000      -0.11971600       0.09782000      -0.06042000
O       17.32939000      13.79769000      15.05779000      -0.36845400      -0.39182600      -0.06673700
O       11.71105000      20.28344000      14.55195000      -0.49299200       0.33366400      -0.33779800
O       15.39935000       3.62861000      14.28549000       0.15159100      -0.12271200      -0.44144100
O       17.24671000      21.93509000      17.38547000      -0.14672800       0.43275200       0.81759400
O       16.59762000      19.78690000      13.79567000      -0.18677000       0.28320100       0.26780400
O       11.52190000       0.11669000      18.32364000       0.61665500       0.17300800      -0.33241900
O       12.55552000      21.71176000      12.08300000      -0.33298900       0.40291200      -0.25579900
O       17.45021000       7.27806000      16.35675000       0.13836700      -0.19445200       0.19935300
O       16.83955000      19.43185000      16.58039000      -0.14724000      -0.49750300      -0.07168000
O       14.91093000      18.85264000      10.69293000      -0.68965000       0.40855000       0.51963800
O       16.22953000       2.11298000      18.08528000      -0.17735500      -0.48763900       0.47442700
O       12.52776000       1.28548000      13.61432000       0.17137300       0.22227900      -0.10131800
O        9.74638000      18.77687000      13.78803000       0.20794100       0.90360700      -0.04342300
O       19.17456000       1.47956000      17.56945000       0.04342500       0.33510000       0.35726900
O       18.09794000       1.32359000      13.06644000      -0.59144700       0.47652100      -0.45858000
O       18.03933000      16.59702000      17.23707000      -0.13436100      -0.33120800      -0.16135400
O       17.55559000      18.18236000      11.92670000       0.45278200      -0.17462200      -0.33630200
O        9.36979000      21.67099000      16.07659000      -1.53406800      -1.90182000      -1.32909200
O       12.79628000       4.55782000      15.14245000      -0.58106500      -0.19817800      -0.11668100
O       17.83259000       1.53419000      19.98452000      -0.38105100       0.18649700       0.08159500
O       14.30432000      21.49217000      15.86512000       0.21329500       0.11928300      -0.28311700
O       11.71644000      18.92856000      11.47227000       0.15576200      -0.28997600      -0.13948100
O       14.38878000      13.57458000      14.36850000       0.24821000      -0.52079900       0.03711600
O       18.99449000      18.14693000      14.78492000       0.14478400       0.41375500       0.41300700
O       10.24838000       2.70594000      16.34210000       1.02757400      -1.65360900      -0.19406700
O       15.26635000       7.20307000      14.22247000      -0.07534400      -0.05108500      -0.27369500
O       17.54508000       4.87844000      18.98556000      -0.00730000       0.51884800       0.54628100
O       16.16812000       1.12909000      15.18585000      -0.36211600       0.22611200      -0.13480800
O       13.92398000      21.64306000       9.90419000       0.24748200       0.14529700      -0.50208900
O       15.29255000      16.44999000      12.83678000      -0.41530500      -0.25779900      -0.02283800
O       19.49593000      20.86571000      12.66900000       0.41356500       0.04786500      -0.38038100
O       10.45081000       2.81863000      13.44296000       0.13030200       0.59500800       0.16495700
O       17.33059000       3.84347000      16.71465000       0.21239800       0.38138200      -0.86577200
O       14.86793000       0.11931000      12.92457000      -0.03598300      -0.40968800       0.53538000
O       14.60223000      22.40690000      18.85340000       1.15376600       0.17071100       0.76837400
O       12.51553000      16.72868000      13.98486000      -0.10543100      -0.32721300       0.07913300
O       20.56489000       0.21578000      15.26757000       0.02435900      -0.02621200       0.07391400
O        9.83068000      22.18165000      12.98705000      -0.02588300       0.55027500      -0.51556300
O       14.91351000       6.87711000      16.81044000      -0.01141200      -0.37408800       0.08045300
O       15.35271000       1.98933000      11.31410000       0.26783700       0.66371300      -0.29771000
O       13.65114000       2.08244000      16.88442000       0.96035200       1.15562200      -0.96062900
O       13.80141000      19.60701000      13.14916000       0.13744700       0.07400000      -0.59915000
O       19.55933000      20.18860000      17.29223000       0.08994400      -0.17768200       0.06154600
Zr      15.77740000      12.48837000      15.33825000      -0.11885600       0.58624600       0.88039200
O       15.85450000      10.38035000      15.54582000      -0.10090300       0.60343500      -0.13765200
O       15.70336000      13.52546000      17.06937000       0.37580900      -0.34089000      -0.63139600
