74
Lattice="30.0 0.0 0.0 0.0 22.52911 0.0 0.0 0.0 30.0" Properties=species:S:1:pos:R:3:forces:R:3 energy=-672.98810115 pbc="T T T"
Zr      15.61353000       2.74827000      16.17979000       0.17298200      -0.01526400      -0.50335100
Zr      13.82310000       0.67666000      11.09495000       0.47025600       0.64102300      -0.13870400
Zr      13.34131000       0.24487000      17.39027000       1.21638100       1.29264700      -1.01396800
Zr      11.70582000      18.47050000      13.35746000       0.20907700       0.68786800      -0.19245400
Zr      19.38891000       0.02722000      13.65426000      -0.15337100       0.02392600      -0.74049900
Zr      18.53385000      18.47133000      16.70345000      -0.18660100      -0.11971900       0.31855300
Zr      11.74085000       2.86143000      14.98799000       1.78556200      -1.85935400      -0.75438100
Zr       9.75620000      20.77871000      14.31131000       0.68794500       0.91264300      -0.89814200
Zr      16.68335000       5.70841000      17.36839000       0.27492500      -0.58295900      -0.38606400
Zr      16.09949000       1.78080000      13.18563000      -0.36911200       0.53773800      -0.61200800
Zr      16.54159000       0.39325000      18.99148000       1.18511100      -0.22611400       0.32262700
Zr      15.64402000      18.37469000      12.44391000      -1.11125200       0.03931500      -0.48605200
Zr      10.28275000       0.52994000      16.86395000       1.10198100      -3.06722700       0.65389700
Zr      10.96163000       1.23947000      12.39876000       1.38191400       0.63688800      -0.69012000
Zr      15.87184000       8.30522000      15.68068000      -0.18288300      -0.03174100       0.04833300
Zr      16.36818000      21.07939000      15.63519000      -0.84953000       0.20268400       0.45372700
Zr      13.28752000      20.09094000      11.03602000       0.00679600      -1.21126000      -0.36675300
Zr      16.79626000      15.12410000      16.43083000       0.42728900      -0.72977600       0.36171400
Zr      14.51996000       5.43341000      15.04755000       0.16460300       0.11998100      -0.71371000
Zr      18.03891000       2.96011000      18.48008000      -0.29055000      -0.10238200       0.82858400
Zr      13.25050000      21.75867000      13.96249000      -0.67170100       0.38583800       1.24388000
Zr      14.19986000      15.53988000      14.19782000      -1.13391700       0.46532900      -0.10668300
Zr      19.39224000      22.16276000      16.79566000      -0.64396600      -0.58512500      -0.17507900
Zr      18.45318000      19.31239000      13.26130000       0.38871500       0.26731700      -0.09678200
O       11.88399000       0.45178000      15.63650000       0.00224200      -1.57097800       1.08320700
O       12.07835000       1.61925000      10.81645000      -0.02455400      -0.07831500      -0.40311000
O       15.29755000      16.09407000      15.70941000      -0.57751700       0.62911000      -0.05538200
O       18.18335000      21.72179000      14.98173000       0.51753400      -0.04294700       0.34977000
O       17.24303000      13.84390000      14.99839000       0.18263500      -0.16574500      -0.08737900
O       11.70617000      20.40565000      14.55137000       0.32135000      -0.77172100      -0.55671700
O       15.36894000       3.61157000      14.19857000       0.17940200       0.13864300       0.50761600
O       17.31595000      21.99153000      17.41385000      -0.34911300      -0.68216300      -0.53514700
O       16.59928000      19.83082000      13.84702000      -0.28226200       0.05964800      -0.18860100
O       11.66867000       0.28967000      18.36585000      -1.06630900      -0.42172000      -0.69060900
O       12.50130000      21.76359000      12.02912000      -0.14118600      -0.28448900       0.33733400
O       17.43819000       7.23731000      16.32301000      -0.01410800       0.27124000       0.15838500
O       16.81802000      19.39415000      16.54015000      -0.30015900       0.08978200       0.05403100
O       14.82404000      18.84377000      10.74757000       0.35446900       0.06298500       0.14567500
O       16.21733000       2.12887000      18.11670000      -0.29040000       0.33595700      -0.55654700
O       12.60893000       1.23776000      13.56971000      -0.21912500       1.23166200      -0.09779800
O        9.70925000      18.95925000      13.75164000       0.50993300      -1.88449900      -0.59769400
O       19.14190000       1.44385000      17.65898000       0.66208400      -0.01918200      -0.26632100
O       18.02150000       1.30192000      12.97844000       0.63406500       0.02289600      -0.00071300
O       17.98855000      16.54107000      17.20871000       0.56927600       0.66617500       0.01990600
O       17.57495000      18.18837000      11.93936000       0.25402500       0.30535600       0.40082100
O        9.15861000      21.59806000      15.94834000      -0.22109400       1.02428800       1.65654000
O       12.75565000       4.54039000      15.07262000      -0.11047800       0.70623300       0.16156600
O       17.74005000       1.53140000      20.04703000       0.06254800       0.67922200      -0.23809600
O       14.28763000      21.47236000      15.84686000       0.50264800       0.13359900       0.14536900
O       11.74079000      18.79558000      11.38595000       0.22287300       0.18195600       0.90400400
O       14.46147000      13.53466000      14.34665000      -0.89844400       0.22136200      -0.37670300
O       19.08080000      18.31057000      14.84792000       0.04933300      -0.02633900      -0.25887000
O       10.53489000       2.28006000      16.42596000      -1.80259400       4.10038300       0.25676200
O       15.30975000       7.22960000      14.19534000      -0.30049200      -0.47461400       0.16621600
O       17.57159000       4.89866000      18.99247000      -0.05374300      -0.03717100      -0.06525300
O       16.11915000       1.11345000      15.13805000       0.07970000      -0.24678800       0.66512600
O       13.97053000      21.62798000       9.89413000       0.07307400       0.30775300       0.37138500
O       15.15785000      16.48033000      12.83537000       0.39940100       0.24734900      -0.32871200
O       19.54098000      20.88067000      12.63527000      -0.03200000       0.11243200       0.04762200
O       10.57201000       2.91124000      13.41332000      -0.27060800       0.05961000       0.51694400
O       17.34118000       3.87609000      16.62755000       0.56338200       0.06539600       0.25459200
O       14.86229000       0.08090000      13.02881000       0.31742800      -0.63436600      -0.37646100
O       14.68523000      22.45923000      18.88329000      -1.75355000      -0.34086800      -0.23419900
O       12.49427000      16.74072000      14.01617000       0.12845600      -0.01305400       0.00653900
O       20.57049000       0.09693000      15.24701000      -0.00326900       0.36736500       0.12893400
O        9.92249000      22.22564000      12.95934000      -1.17491600      -0.59273000       0.10048100
O       14.88048000       6.77957000      16.79370000       0.28780600       0.15183800      -0.36644800
O       15.37016000       2.00403000      11.34941000      -0.64571200      -0.36623700      -0.10066200
O       13.74734000       2.18355000      16.68482000      -0.66918100      -1.23786100       0.50661700
O       13.81679000      19.57942000      13.07331000      -0.42475600       0.47570100       0.04493300
O       19.55466000      20.13709000      17.25789000       0.15795100       0.60493900       0.25349400
Zr      15.75386000      12.49790000      15.38515000       0.72346600      -0.22098100       0.17613100
O       15.77457000      10.44041000      15.51609000       0.15045100      -0.93448800       0.08737000
O       15.78474000      13.47774000      17.07357000      -0.15787200       0.12027300       0.50762900
