74
Lattice="30.0 0.0 0.0 0.0 22.52911 0.0 0.0 0.0 30.0" Properties=species:S:1:pos:R:3:forces:R:3 energy=-673.02633264 pbc="T T T"
Zr      15.61470000       2.74498000      16.17744000       0.28474800       0.18569500      -0.42826400
Zr      13.82360000       0.67265000      11.10193000       0.36898100       0.73973700      -0.31289900
Zr      13.33884000       0.24536000      17.38936000       1.55852400       1.31894300      -1.17339800
Zr      11.70681000      18.47638000      13.35424000       0.25592700       0.51498100      -0.07438300
Zr      19.38574000       0.02853000      13.65015000      -0.01384600       0.00352200      -0.64166400
Zr      18.53096000      18.47154000      16.70602000      -0.17739000       0.01277700       0.27182700
Zr      11.74619000       2.86102000      14.98469000       1.70420900      -1.74966400      -0.71152600
Zr       9.75944000      20.77863000      14.31473000       0.62080300       1.00685200      -1.05458200
Zr      16.68464000       5.70568000      17.36594000       0.33480700      -0.64455700      -0.30439800
Zr      16.09684000       1.78051000      13.19099000      -0.35898900       0.52630500      -0.77461300
Zr      16.54097000       0.39260000      18.98805000       1.05595200      -0.15463800       0.39878400
Zr      15.63970000      18.37838000      12.44422000      -0.87100200       0.02111400      -0.34437300
Zr      10.28682000       0.52062000      16.86457000       1.01883100      -2.75151800       0.36582900
Zr      10.96401000       1.23170000      12.39966000       1.32435400       1.18518200      -0.68446800
Zr      15.87071000       8.30471000      15.67956000      -0.17393300      -0.11875700      -0.00089000
Zr      16.36715000      21.07933000      15.63163000      -0.87806500       0.18432500       0.47467200
Zr      13.28587000      20.08865000      11.04117000      -0.09266300      -1.01248300      -0.49139600
Zr      16.79391000      15.12619000      16.43066000       0.54244700      -0.84930400       0.30719100
Zr      14.52127000       5.43236000      15.04762000       0.00363200       0.07723300      -0.74187800
Zr      18.03820000       2.95507000      18.48138000      -0.30091600       0.09890900       0.82084600
Zr      13.25298000      21.77369000      13.96075000      -0.79127100       0.28994400       1.36592700
Zr      14.20199000      15.53579000      14.20181000      -1.16103300       0.57660200      -0.29312500
Zr      19.39256000      22.15953000      16.79481000      -0.59336300      -0.53517400      -0.17355800
Zr      18.45397000      19.31740000      13.26432000       0.37313100       0.34319800      -0.13657900
O       11.89948000       0.43870000      15.63844000      -0.16946900      -1.55158900       1.04907100
O       12.07171000       1.61589000      10.82285000       0.10833900      -0.10218300      -0.54260700
O       15.29815000      16.09734000      15.71333000      -0.61876600       0.62022500      -0.08784300
O       18.18119000      21.73020000      14.98042000       0.50555400      -0.06580800       0.33584700
O       17.23543000      13.84146000      14.98886000       0.18831600      -0.01777700       0.03711600
O       11.70721000      20.41002000      14.54298000       0.30068300      -0.77452900      -0.50351200
O       15.36806000       3.61199000      14.19509000       0.20471800       0.07751900       0.48506400
O       17.31794000      21.99192000      17.41478000      -0.37050600      -0.69885500      -0.54307900
O       16.59456000      19.83791000      13.85255000      -0.22762500       0.00078500      -0.27089100
O       11.67680000       0.30329000      18.35594000      -1.28625700      -0.48356000      -0.45164500
O       12.49271000      21.76829000      12.02540000      -0.10729500      -0.34002200       0.41964000
O       17.43824000       7.23358000      16.32323000      -0.04245900       0.36068800       0.11842800
O       16.81106000      19.38997000      16.53629000      -0.22169100       0.07727300       0.08712400
O       14.81553000      18.84632000      10.76105000       0.44393200       0.00041800      -0.12165600
O       16.21123000       2.13152000      18.11624000      -0.21923400       0.30687300      -0.55459600
O       12.61171000       1.24915000      13.56099000      -0.09016900       1.10948700       0.05668900
O        9.71375000      18.95955000      13.74105000       0.44769600      -1.72146400      -0.52405800
O       19.14663000       1.44167000      17.66584000       0.61772800      -0.01994600      -0.25822400
O       18.02079000       1.30141000      12.96788000       0.51852300       0.05691500       0.04017400
O       17.98998000      16.54313000      17.20565000       0.52545500       0.58178900       0.01234300
O       17.58537000      18.19090000      11.94240000       0.07802200       0.32158900       0.44413500
O        9.12662000      21.59157000      15.94672000       0.03465800       1.08625100       1.60290200
O       12.74426000       4.54349000      15.06718000       0.08114300       0.80065900       0.17440500
O       17.73106000       1.54018000      20.05190000       0.03260800       0.59478800      -0.31992700
O       14.29300000      21.47250000      15.84572000       0.45856400       0.12244200       0.13999600
O       11.74588000      18.78270000      11.38945000       0.21804700       0.24826700       0.77502400
O       14.46156000      13.52664000      14.34132000      -0.93653000       0.36299500      -0.35168500
O       19.09026000      18.32804000      14.85218000       0.02840600      -0.08665000      -0.21694500
O       10.54418000       2.27816000      16.43632000      -1.78049500       3.69752300       0.27750800
O       15.30963000       7.22569000      14.19185000      -0.27258200      -0.43125600       0.23629100
O       17.57388000       4.90477000      18.99712000      -0.06840300      -0.16716200      -0.18107000
O       16.11268000       1.11181000      15.14337000       0.15724200      -0.31789200       0.49710100
O       13.97766000      21.63316000       9.89236000       0.02774500       0.20733600       0.50481900
O       15.15043000      16.48795000      12.82785000       0.31698200       0.11374200      -0.15686800
O       19.54744000      20.88328000      12.63023000      -0.09492600       0.11108600       0.09429300
O       10.57955000       2.92861000      13.41862000      -0.25969400      -0.19680200       0.39725300
O       17.35011000       3.88284000      16.61693000       0.50305600      -0.02623200       0.35631500
O       14.86159000       0.06528000      13.03825000       0.47851600      -0.45334100      -0.48586900
O       14.67884000      22.46148000      18.88659000      -1.59978700      -0.32522600      -0.23561300
O       12.49100000      16.74204000      14.01909000       0.23146300      -0.06114100       0.02042700
O       20.57300000       0.08951000      15.24937000      -0.07376500       0.38058500       0.02712000
O        9.92255000      22.23677000      12.94764000      -1.37105400      -1.05073200       0.40754900
O       14.88087000       6.76971000      16.78860000       0.26971200       0.20507700      -0.36136300
O       15.36396000       2.00539000      11.34475000      -0.57625300      -0.44044000       0.14058400
O       13.75621000       2.18376000      16.66656000      -0.83362700      -1.28752900       0.59313300
O       13.81378000      19.58224000      13.06265000      -0.41089200       0.48311100       0.16344300
O       19.55689000      20.13893000      17.25735000       0.11625100       0.55064200       0.26762000
Zr      15.75285000      12.49955000      15.39103000       0.69504500      -0.44431800      -0.02533800
O       15.76788000      10.43952000      15.51330000       0.17466400      -0.94775900       0.10961200
O       15.79201000      13.47001000      17.07384000      -0.15759400       0.27728400       0.64961600
