74
Lattice="30.0 0.0 0.0 0.0 22.52911 0.0 0.0 0.0 30.0" Properties=species:S:1:pos:R:3:forces:R:3 energy=-673.10989849 pbc="T T T"
Zr      15.61598000       2.74178000      16.17491000       0.37246600       0.38422600      -0.33757000
Zr      13.82425000       0.66896000      11.10876000       0.26247300       0.81092600      -0.48094200
Zr      13.33703000       0.24640000      17.38796000       1.84744200       1.31746200      -1.30224700
Zr      11.70791000      18.48246000      13.35100000       0.30526700       0.31783200       0.07831700
Zr      19.38258000       0.02984000      13.64578000       0.13761800      -0.01787400      -0.52710600
Zr      18.52801000      18.47176000      16.70870000      -0.16319200       0.17288200       0.20448400
Zr      11.75223000       2.85989000      14.98110000       1.58156400      -1.60576300      -0.58300200
Zr       9.76294000      20.77898000      14.31769000       0.50881600       0.99849200      -1.11876400
Zr      16.68607000       5.70268000      17.36337000       0.39301700      -0.68907800      -0.23219000
Zr      16.09404000       1.78044000      13.19601000      -0.32178900       0.49618600      -0.90634900
Zr      16.54080000       0.39190000      18.98480000       0.83918900      -0.08464900       0.43410700
Zr      15.63503000      18.38206000      12.44439000      -0.62146100       0.00605500      -0.17567400
Zr      10.29130000       0.51017000      16.86534000       0.95250200      -2.16929900       0.05061300
Zr      10.96693000       1.22445000      12.40027000       1.24059200       1.67054500      -0.67798100
Zr      15.86952000       8.30416000      15.67845000      -0.16453000      -0.21804300      -0.04896300
Zr      16.36574000      21.07935000      15.62828000      -0.88732100       0.16461300       0.48001500
Zr      13.28418000      20.08594000      11.04610000      -0.18585900      -0.81276600      -0.60393300
Zr      16.79180000      15.12793000      16.43062000       0.62190500      -0.90809700       0.24912300
Zr      14.52258000       5.43135000      15.04737000      -0.15586800       0.04222100      -0.76029200
Zr      18.03735000       2.95008000      18.48302000      -0.28881300       0.29776100       0.78982700
Zr      13.25512000      21.78878000      13.95960000      -0.90637500       0.17678300       1.48507400
Zr      14.20362000      15.53195000      14.20566000      -1.19187700       0.70178600      -0.48725400
Zr      19.39262000      22.15608000      16.79389000      -0.52746800      -0.47525800      -0.18844900
Zr      18.45491000      19.32254000      13.26727000       0.35473100       0.42808500      -0.16346000
O       11.91450000       0.42192000      15.64290000      -0.35468000      -1.49220100       0.96638900
O       12.06535000       1.61229000      10.82792000       0.21928300      -0.11812000      -0.66183300
O       15.29726000      16.10209000      15.71702000      -0.60527800       0.57560400      -0.09156900
O       18.18025000      21.73842000      14.97993000       0.47264000      -0.09479900       0.31636000
O       17.22830000      13.83899000      14.97945000       0.18021400       0.11642300       0.16544600
O       11.70898000      20.41252000      14.53340000       0.25501700      -0.75080100      -0.44403000
O       15.36768000       3.61259000      14.19278000       0.23199900       0.00244000       0.44583600
O       17.31903000      21.99062000      17.41440000      -0.40356500      -0.68145300      -0.50116200
O       16.58930000      19.84498000      13.85740000      -0.16962000      -0.05405900      -0.34734400
O       11.68181000       0.31571000      18.34498000      -1.47069800      -0.54364500      -0.20276300
O       12.48388000      21.77216000      12.02271000      -0.07599900      -0.36999200       0.50221000
O       17.43818000       7.23074000      16.32374000      -0.06440400       0.43967400       0.08271700
O       16.80358000      19.38598000      16.53266000      -0.13155500       0.05279100       0.12135600
O       14.80810000      18.84887000      10.77419000       0.51131100      -0.05387600      -0.40752300
O       16.20462000       2.13489000      18.11445000      -0.13746600       0.23627300      -0.51503800
O       12.61426000       1.26317000      13.55244000       0.04811600       0.95120600       0.21839400
O        9.71932000      18.95573000      13.72923000       0.37989700      -1.43905800      -0.41625900
O       19.15284000       1.43946000      17.67205000       0.55001000      -0.00867700      -0.23304400
O       18.02133000       1.30104000      12.95745000       0.36424500       0.10594800       0.07659400
O       17.99267000      16.54659000      17.20262000       0.45847800       0.46075700      -0.00202700
O       17.59595000      18.19420000      11.94650000      -0.09500700       0.31957400       0.46316100
O        9.09481000      21.58769000      15.94895000       0.32099300       1.07275500       1.43888600
O       12.73309000       4.54850000      15.06217000       0.25968500       0.86207100       0.18257500
O       17.72218000       1.55037000      20.05598000      -0.00931900       0.48676800      -0.40148600
O       14.29945000      21.47294000      15.84491000       0.40080900       0.11374500       0.12482000
O       11.75147000      18.77046000      11.39480000       0.20900600       0.31231600       0.59834900
O       14.45939000      13.51951000      14.33518000      -0.92102600       0.45752100      -0.28649200
O       19.09976000      18.34524000      14.85590000       0.00592700      -0.14710700      -0.15157300
O       10.54916000       2.28513000      16.44731000      -1.71937700       3.04148100       0.28226700
O       15.30886000       7.22075000      14.18894000      -0.24078800      -0.38236400       0.28949600
O       17.57600000       4.91045000      19.00132000      -0.08207900      -0.28993800      -0.28137200
O       16.10661000       1.10941000      15.14987000       0.23029900      -0.37858300       0.30319400
O       13.98484000      21.63882000       9.89180000      -0.01440400       0.10780800       0.61863100
O       15.14380000      16.49581000      12.81998000       0.23303400      -0.02674300       0.01487000
O       19.55365000      20.88616000      12.62544000      -0.15307600       0.10594300       0.13119300
O       10.58643000       2.94546000      13.42487000      -0.25994400      -0.44465100       0.25482100
O       17.36022000       3.88951000      16.60720000       0.42827400      -0.12153200       0.43761800
O       14.86205000       0.04862000      13.04649000       0.62851000      -0.26338100      -0.58748600
O       14.66863000      22.46293000      18.88932000      -1.32018100      -0.28784600      -0.21278600
O       12.48829000      16.74321000      14.02206000       0.33252300      -0.11218300       0.03392400
O       20.57532000       0.08303000      15.25179000      -0.14041200       0.39185100      -0.07316500
O        9.91931000      22.24534000      12.93695000      -1.52266900      -1.43338500       0.67247000
O       14.88190000       6.76037000      16.78264000       0.24677200       0.24993000      -0.33975200
O       15.35640000       2.00568000      11.34044000      -0.48951600      -0.48779200       0.36749000
O       13.76304000       2.18086000      16.64979000      -0.95315600      -1.29866000       0.65128100
O       13.80980000      19.58622000      13.05243000      -0.38006600       0.48484400       0.28003400
O       19.55940000      20.14208000      17.25745000       0.06836300       0.47148600       0.28121100
Zr      15.75213000      12.50101000      15.39689000       0.62456500      -0.64865600      -0.23321200
O       15.76163000      10.43637000      15.51078000       0.19671500      -0.90280800       0.12898800
O       15.79888000      13.46298000      17.07566000      -0.14412700       0.42301900       0.75269000
