74
Lattice="30.0 0.0 0.0 0.0 22.52911 0.0 0.0 0.0 30.0" Properties=species:S:1:pos:R:3:forces:R:3 energy=-673.16178681 pbc="T T T"
Zr      15.61668000       2.74024000      16.17359000       0.40654700       0.47782400      -0.28883400
Zr      13.82463000       0.66724000      11.11209000       0.21189400       0.83496200      -0.55915700
Zr      13.33642000       0.24713000      17.38706000       1.96455100       1.30651200      -1.35060100
Zr      11.70851000      18.48555000      13.34939000       0.32954300       0.21258500       0.16648200
Zr      19.38102000       0.03049000      13.64351000       0.21562100      -0.02724200      -0.46593000
Zr      18.52651000      18.47189000      16.71007000      -0.15504700       0.26212100       0.16440000
Zr      11.75550000       2.85906000      14.97921000       1.50844300      -1.52183300      -0.48616800
Zr       9.76476000      20.77931000      14.31899000       0.43640500       0.96042200      -1.11933900
Zr      16.68684000       5.70107000      17.36205000       0.42179300      -0.70557600      -0.20011400
Zr      16.09259000       1.78048000      13.19837000      -0.29301600       0.47466000      -0.95905500
Zr      16.54086000       0.39153000      18.98324000       0.70460400      -0.05132800       0.43703400
Zr      15.63260000      18.38390000      12.44444000      -0.49430500      -0.00183900      -0.08314100
Zr      10.29369000       0.50459000      16.86574000       0.91467100      -1.81041200      -0.10833800
Zr      10.96859000       1.22109000      12.40046000       1.18308800       1.86975500      -0.67128100
Zr      15.86890000       8.30385000      15.67789000      -0.15965000      -0.27147500      -0.07222200
Zr      16.36490000      21.07939000      15.62668000      -0.88430400       0.15408800       0.47778400
Zr      13.28331000      20.08445000      11.04846000      -0.22981600      -0.71694300      -0.65384300
Zr      16.79084000      15.12865000      16.43064000       0.64673300      -0.91331600       0.21949600
Zr      14.52321000       5.43085000      15.04712000      -0.23236300       0.02851900      -0.76603900
Zr      18.03689000       2.94764000      18.48397000      -0.27495800       0.39374000       0.76483000
Zr      13.25604000      21.79635000      13.95926000      -0.96112700       0.11343900       1.54292500
Zr      14.20424000      15.53014000      14.20751000      -1.21048300       0.76920100      -0.58329900
Zr      19.39257000      22.15428000      16.79340000      -0.49036000      -0.44361300      -0.20111000
Zr      18.45544000      19.32517000      13.26872000       0.34368800       0.47265600      -0.16981200
O       11.92171000       0.41219000      15.64601000      -0.44945800      -1.44841800       0.90782300
O       12.06235000       1.61039000      10.82987000       0.26205900      -0.12356400      -0.71038700
O       15.29627000      16.10499000      15.71879000      -0.57814700       0.54035600      -0.08273100
O       18.18022000      21.74245000      14.97997000       0.44914000      -0.11127500       0.30492500
O       17.22491000      13.83784000      14.97489000       0.17154200       0.17627900       0.22911000
O       11.71010000      20.41308000      14.52821000       0.22772000      -0.72931600      -0.41397700
O       15.36769000       3.61290000      14.19204000       0.24586000      -0.03870900       0.42153600
O       17.31921000      21.98935000      17.41375000      -0.42403200      -0.66087200      -0.46297100
O       16.58651000      19.84847000      13.85952000      -0.13981100      -0.07935400      -0.38261400
O       11.68301000       0.32142000      18.33928000      -1.53864800      -0.57328300      -0.08001400
O       12.47940000      21.77377000      12.02181000      -0.06122200      -0.37387200       0.54271300
O       17.43809000       7.22971000      16.32408000      -0.07288500       0.47365800       0.06757200
O       16.79972000      19.38405000      16.53095000      -0.08397800       0.03684900       0.13848800
O       14.80485000      18.85010000      10.78043000       0.53784700      -0.07722400      -0.55268200
O       16.20119000       2.13679000      18.11309000      -0.09389400       0.18782500      -0.48388300
O       12.61556000       1.27106000      13.54834000       0.11817300       0.86159100       0.29726700
O        9.72246000      18.95247000      13.72294000       0.34436400      -1.26432200      -0.35189700
O       19.15645000       1.43834000      17.67494000       0.50877400       0.00076600      -0.21419100
O       18.02195000       1.30095000      12.95230000       0.27738100       0.13478300       0.09355300
O       17.99443000      16.54875000      17.20111000       0.41855900       0.38903500      -0.01135300
O       17.60117000      18.19614000      11.94896000      -0.17867000       0.31156300       0.46329500
O        9.07918000      21.58674000      15.95139000       0.47558200       1.04390800       1.32599400
O       12.72773000       4.55177000      15.05984000       0.34032600       0.87667900       0.18534200
O       17.71774000       1.55591000      20.05766000      -0.03342400       0.42430000      -0.43978900
O       14.30304000      21.47326000      15.84462000       0.36606900       0.11096400       0.11430000
O       11.75445000      18.76462000      11.39803000       0.20313800       0.34334700       0.49262900
O       14.45747000      13.51636000      14.33183000      -0.89406300       0.48371200      -0.23909500
O       19.10451000      18.35370000      14.85762000      -0.00710600      -0.17685400      -0.11243700
O       10.55008000       2.29147000      16.45305000      -1.66860700       2.65287300       0.26846100
O       15.30825000       7.21794000      14.18774000      -0.22429900      -0.35593900       0.30937600
O       17.57699000       4.91305000      19.00318000      -0.08844300      -0.34713600      -0.32499900
O       16.10377000       1.10788000      15.15341000       0.26414500      -0.40255700       0.20098000
O       13.98842000      21.64176000       9.89207000      -0.03329400       0.06086000       0.66708400
O       15.14071000      16.49974000      12.81604000       0.19303700      -0.09484600       0.09735700
O       19.55662000      20.88769000      12.62316000      -0.18070900       0.10104600       0.14572000
O       10.58964000       2.95350000      13.42824000      -0.26309700      -0.56405100       0.17673100
O       17.36567000       3.89274000      16.60272000       0.38632200      -0.16976100       0.47064500
O       14.86283000       0.04004000      13.05009000       0.69460900      -0.16782800      -0.63338800
O       14.66230000      22.46339000      18.89049000      -1.14347700      -0.26307700      -0.19364200
O       12.48723000      16.74370000      14.02356000       0.38065400      -0.13732900       0.04049600
O       20.57636000       0.08014000      15.25294000      -0.17098000       0.39640500      -0.12096400
O        9.91634000      22.24838000      12.93218000      -1.57063900      -1.57569600       0.78063900
O       14.88265000       6.75593000      16.77936000       0.23344000       0.26959200      -0.32316400
O       15.35217000       2.00540000      11.33859000      -0.44007000      -0.50022000       0.47168200
O       13.76561000       2.17825000      16.64199000      -0.99314200      -1.29120300       0.67039600
O       13.80746000      19.58865000      13.04756000      -0.35795200       0.48461200       0.33625100
O       19.56072000      20.14409000      17.25776000       0.04345500       0.42489200       0.28803100
Zr      15.75187000      12.50164000      15.39978000       0.57463600      -0.73867200      -0.33619700
O       15.75868000      10.43396000      15.50964000       0.20762000      -0.86140800       0.13694800
O       15.80218000      13.45983000      17.07724000      -0.13440700       0.48776800       0.78594400
