74
Lattice="30.0 0.0 0.0 0.0 22.52911 0.0 0.0 0.0 30.0" Properties=species:S:1:pos:R:3:forces:R:3 energy=-673.26977418 pbc="T T T"
Zr      15.61821000       2.73732000      16.17087000       0.44979600       0.64607100      -0.18702600
Zr      13.82543000       0.66409000      11.11857000       0.11351800       0.85941500      -0.70432600
Zr      13.33582000       0.24899000      17.38483000       2.12835800       1.26846000      -1.40490400
Zr      11.70981000      18.49178000      13.34624000       0.38003300      -0.01136900       0.36553000
Zr      19.37798000       0.03177000      13.63883000       0.36893700      -0.04184000      -0.33778600
Zr      18.52347000      18.47224000      16.71286000      -0.13252800       0.44819100       0.07526000
Zr      11.76249000       2.85693000      14.97530000       1.33568100      -1.32413400      -0.23223400
Zr       9.76855000      20.78027000      14.32124000       0.26520400       0.83495000      -1.07347000
Zr      16.68853000       5.69764000      17.35935000       0.47564700      -0.72215500      -0.14825900
Zr      16.08961000       1.78072000      13.20278000      -0.21844100       0.42180000      -1.04184100
Zr      16.54117000       0.39079000      18.98028000       0.40533800       0.00848400       0.41697500
Zr      15.62759000      18.38758000      12.44453000      -0.24870100      -0.01711900       0.10913400
Zr      10.29876000       0.49292000      16.86650000       0.81264800      -1.02794200      -0.41038700
Zr      10.97227000       1.21497000      12.40064000       1.03307400       2.15880800      -0.65069100
Zr      15.86760000       8.30315000      15.67675000      -0.14948500      -0.38120200      -0.11456700
Zr      16.36294000      21.07951000      15.62365000      -0.86039800       0.13039500       0.46403700
Zr      13.28149000      20.08126000      11.05298000      -0.30360600      -0.53523000      -0.74284800
Zr      16.78913000      15.12980000      16.43075000       0.66563600      -0.87950000       0.16164100
Zr      14.52440000       5.42986000      15.04639000      -0.37459900       0.00717400      -0.77117000
Zr      18.03587000       2.94288000      18.48610000      -0.23189000       0.57723500       0.69931500
Zr      13.25758000      21.81149000      13.95907000      -1.05520300      -0.02744100       1.64958700
Zr      14.20511000      15.52679000      14.21101000      -1.25372300       0.90816200      -0.76575000
Zr      19.39232000      22.15055000      16.79235000      -0.41102200      -0.37323000      -0.23399700
Zr      18.45660000      19.33058000      13.27155000       0.32139100       0.56295700      -0.16992600
O       11.93525000       0.39015000      15.65382000      -0.63103700      -1.33947300       0.75185800
O       12.05687000       1.60637000      10.83247000       0.31871200      -0.12983100      -0.77689200
O       15.29327000      16.11173000      15.72216000      -0.48922100       0.44636700      -0.04783700
O       18.18094000      21.75028000      14.98060000       0.38923000      -0.14834300       0.27809000
O       17.21843000      13.83590000      14.96621000       0.14492100       0.27381000       0.34901000
O       11.71273000      20.41291000      14.51711000       0.16885100      -0.66500900      -0.35038400
O       15.36818000       3.61343000      14.19131000       0.27128800      -0.12387300       0.36663400
O       17.31880000      21.98564000      17.41165000      -0.46800600      -0.59793800      -0.35819500
O       16.58071000      19.85529000      13.86305000      -0.08058900      -0.12510900      -0.44335900
O       11.68259000       0.33179000      18.32784000      -1.60762000      -0.63056100       0.15497000
O       12.47035000      21.77629000      12.02101000      -0.03721400      -0.35669900       0.61924500
O       17.43779000       7.22852000      16.32486000      -0.08425600       0.52798700       0.04378100
O       16.79188000      19.38023000      16.52779000       0.01126600       0.00319100       0.17058400
O       14.79934000      18.85241000      10.79180000       0.57243800      -0.11315900      -0.83135100
O       16.19418000       2.14091000      18.10951000      -0.00611200       0.07175600      -0.40403600
O       12.61841000       1.28830000      13.54075000       0.25167900       0.66387500       0.44620200
O        9.72932000      18.94380000      13.70977000       0.26955800      -0.87875800      -0.21075900
O       19.16454000       1.43612000      17.68033000       0.41304000       0.02502000      -0.16812800
O       18.02364000       1.30102000      12.94220000       0.09465500       0.19644800       0.12566700
O       17.99869000      16.55372000      17.19807000       0.32947000       0.22988300      -0.03107300
O       17.61123000      18.20057000      11.95471000      -0.33617600       0.28051100       0.44408500
O        9.04890000      21.58668000      15.95858000       0.78987900       0.95054800       1.05721200
O       12.71767000       4.55990000      15.05551000       0.47634300       0.86829700       0.18583300
O       17.70880000       1.56771000      20.06021000      -0.08211400       0.29161400      -0.50594400
O       14.31085000      21.47410000      15.84425000       0.28635200       0.10905600       0.08941100
O       11.76077000      18.75359000      11.40532000       0.18762700       0.40137000       0.25196200
O       14.45205000      13.51093000      14.32477000      -0.80076300       0.49709600      -0.11664200
O       19.11398000      18.37027000      14.86086000      -0.03411500      -0.23560500      -0.02734800
O       10.54893000       2.30868000      16.46499000      -1.52279700       1.82548300       0.19800200
O       15.30665000       7.21168000      14.18591000      -0.19137600      -0.30007100       0.33199100
O       17.57880000       4.91757000      19.00628000      -0.10136100      -0.45085900      -0.39798600
O       16.09860000       1.10408000      15.16080000       0.32465900      -0.43251200      -0.00220400
O       13.99549000      21.64771000       9.89383000      -0.06790900      -0.02979200       0.74126700
O       15.13487000      16.50737000      12.80839000       0.12513600      -0.21944500       0.24708400
O       19.56222000      20.89093000      12.61887000      -0.22874600       0.08798300       0.16617800
O       10.59556000       2.96848000      13.43524000      -0.27617500      -0.78393000       0.01458200
O       17.37722000       3.89887000      16.59465000       0.29427200      -0.26566000       0.52112200
O       14.86567000       0.02264000      13.05611000       0.79750500       0.01407500      -0.71344100
O       14.64769000      22.46384000      18.89248000      -0.74093000      -0.20702400      -0.14291200
O       12.48582000      16.74442000      14.02665000       0.46832700      -0.18308300       0.05122300
O       20.57811000       0.07510000      15.25500000      -0.22318300       0.40366700      -0.20905700
O        9.90755000      22.25154000      12.92412000      -1.59292200      -1.74868800       0.94172700
O       14.88455000       6.74756000      16.77222000       0.20355700       0.30187100      -0.27660600
O       15.34296000       2.00392000      11.33580000      -0.33381300      -0.50077200       0.65428900
O       13.76893000       2.17070000      16.62764000      -1.02945100      -1.24628100       0.68504900
O       13.80215000      19.59437000      13.03848000      -0.29922100       0.47720800       0.44122300
O       19.56342000      20.14885000      17.25889000      -0.00574900       0.32212000       0.30147200
Zr      15.75153000      12.50266000      15.40543000       0.44820900      -0.88492600      -0.52843000
O       15.75318000      10.42764000      15.50761000       0.22776700      -0.74295500       0.14945800
O       15.80853000      13.45445000      17.08182000      -0.11028000       0.59433200       0.80645600
