74
Lattice="30.0 0.0 0.0 0.0 22.52911 0.0 0.0 0.0 30.0" Properties=species:S:1:pos:R:3:forces:R:3 energy=-673.36580672 pbc="T T T"
Zr      15.61992000       2.73469000      16.16808000       0.46200300       0.78164900      -0.08603700
Zr      13.82628000       0.66130000      11.12473000       0.02817800       0.85062800      -0.82654500
Zr      13.33612000       0.25139000      17.38201000       2.18651700       1.20616300      -1.39327500
Zr      11.71126000      18.49799000      13.34325000       0.42917700      -0.24980400       0.58901900
Zr      19.37511000       0.03304000      13.63403000       0.51221000      -0.04508000      -0.20532400
Zr      18.52038000      18.47278000      16.71568000      -0.10576900       0.63548200      -0.02044500
Zr      11.77004000       2.85425000      14.97130000       1.13918800      -1.08530400       0.08195400
Zr       9.77243000      20.78157000      14.32303000       0.06728900       0.66460000      -0.98129700
Zr      16.69041000       5.69392000      17.35659000       0.52607500      -0.71829200      -0.11292200
Zr      16.08654000       1.78114000      13.20674000      -0.12398100       0.35408600      -1.09612900
Zr      16.54166000       0.39004000      18.97749000       0.08751900       0.05658300       0.36777900
Zr      15.62249000      18.39123000      12.44466000      -0.02014700      -0.03570000       0.29939200
Zr      10.30415000       0.48084000      16.86707000       0.65316300      -0.24184900      -0.67329900
Zr      10.97638000       1.20979000      12.40055000       0.83078300       2.28863400      -0.61827500
Zr      15.86625000       8.30228000      15.67556000      -0.13917000      -0.49353800      -0.14960100
Zr      16.36063000      21.07968000      15.62081000      -0.81214200       0.10208800       0.43901900
Zr      13.27956000      20.07785000      11.05717000      -0.35518100      -0.37363200      -0.81640400
Zr      16.78770000      15.13058000      16.43092000       0.64650800      -0.79134300       0.10962700
Zr      14.52542000       5.42888000      15.04534000      -0.49807600      -0.00556600      -0.76718500
Zr      18.03476000       2.93839000      18.48852000      -0.17106600       0.74417000       0.61414700
Zr      13.25867000      21.82657000      13.95958000      -1.12102500      -0.18405600       1.73629000
Zr      14.20544000      15.52382000      14.21417000      -1.30262400       1.05171100      -0.92463900
Zr      19.39189000      22.14667000      16.79121000      -0.32874800      -0.29304700      -0.27357200
Zr      18.45789000      19.33621000      13.27431000       0.29930800       0.64932600      -0.14852200
O       11.94722000       0.36496000      15.66342000      -0.79251200      -1.21014600       0.54836300
O       12.05216000       1.60205000      10.83319000       0.33194900      -0.12869600      -0.79729900
O       15.28910000      16.11952000      15.72542000      -0.36232400       0.32517600       0.00501700
O       18.18260000      21.75772000      14.98190000       0.31559200      -0.19037100       0.24486800
O       17.21232000      13.83461000      14.95840000       0.10799900       0.34043800       0.45806300
O       11.71576000      20.41114000      14.50521000       0.11328700      -0.57602600      -0.28683600
O       15.36931000       3.61366000      14.19146000       0.29216900      -0.20840300       0.30692300
O       17.31727000      21.98051000      17.40869000      -0.51255000      -0.51202300      -0.22496900
O       16.57473000      19.86178000      13.86550000      -0.02229000      -0.16351900      -0.49132900
O       11.67832000       0.34060000      18.31680000      -1.57066600      -0.68565100       0.36920400
O       12.46124000      21.77796000      12.02170000      -0.01542000      -0.30725100       0.68890400
O       17.43728000       7.22860000      16.32575000      -0.08854200       0.56261800       0.02939600
O       16.78409000      19.37644000      16.52505000       0.10394400      -0.02833700       0.19802200
O       14.79522000      18.85444000      10.80114000       0.58493000      -0.13374500      -1.08215500
O       16.18718000       2.14518000      18.10497000       0.07947600      -0.05810700      -0.30808500
O       12.62185000       1.30709000      13.53424000       0.36884400       0.45287100       0.57069400
O        9.73680000      18.93303000      13.69614000       0.18936600      -0.47604300      -0.06210100
O       19.17361000       1.43396000      17.68530000       0.30489500       0.05060500      -0.11413000
O       18.02555000       1.30156000      12.93244000      -0.08634900       0.25758500       0.15568500
O       18.00373000      16.55923000      17.19496000       0.23252600       0.05708200      -0.05048900
O       17.62045000      18.20565000      11.96152000      -0.47970800       0.23300300       0.40239000
O        9.02062000      21.58891000      15.96830000       1.10218700       0.82596000       0.75808300
O       12.70879000       4.57008000      15.05164000       0.57635900       0.80700600       0.17999600
O       17.69969000       1.58018000      20.06154000      -0.12896800       0.15159700      -0.55358700
O       14.31933000      21.47521000      15.84409000       0.19301800       0.11256300       0.06402200
O       11.76753000      18.74356000      11.41319000       0.16680200       0.45282700      -0.02002600
O       14.44473000      13.50671000      14.31744000      -0.66507100       0.46085800       0.03447000
O       19.12334000      18.38622000      14.86403000      -0.06401700      -0.28703500       0.05687200
O       10.54414000       2.33023000      16.47736000      -1.31711700       1.00962400       0.06566800
O       15.30458000       7.20472000      14.18488000      -0.15820900      -0.24296600       0.33066200
O       17.58036000       4.92100000      19.00842000      -0.11345500      -0.53753800      -0.45036400
O       16.09423000       1.09926000      15.16816000       0.37285300      -0.43856400      -0.19265700
O       14.00238000      21.65357000       9.89736000      -0.09614500      -0.11294000       0.78652700
O       15.12935000      16.51445000      12.80135000       0.07240400      -0.32234900       0.37148600
O       19.56724000      20.89437000      12.61500000      -0.26845800       0.07151600       0.17475500
O       10.60080000       2.98154000      13.44225000      -0.28947700      -0.98070000      -0.15069300
O       17.38945000       3.90433000      16.58786000       0.19202600      -0.35815900       0.54924700
O       14.87041000       0.00533000      13.06040000       0.85105100       0.17737400      -0.77086400
O       14.63136000      22.46380000      18.89412000      -0.30388900      -0.14792100      -0.07940900
O       12.48554000      16.74469000      14.02986000       0.54190900      -0.22118200       0.05986200
O       20.57932000       0.07104000      15.25656000      -0.26423300       0.40833500      -0.28737800
O        9.89496000      22.25051000      12.91835000      -1.51009400      -1.75452000       1.02618600
O       14.88694000       6.73993000      16.76445000       0.16967900       0.32373100      -0.21448100
O       15.33297000       2.00124000      11.33459000      -0.21857600      -0.46836900       0.79872600
O       13.76976000       2.16017000      16.61498000      -1.00865700      -1.16271800       0.67136100
O       13.79615000      19.60121000      13.03048000      -0.22358000       0.46126800       0.52993100
O       19.56610000      20.15437000      17.26074000      -0.05301600       0.21161200       0.31543900
Zr      15.75138000      12.50330000      15.41085000       0.29722200      -0.98165300      -0.69169500
O       15.74824000      10.41956000      15.50594000       0.24482900      -0.58317000       0.15893900
O       15.81460000      13.45052000      17.08832000      -0.08303300       0.66538700       0.76619900
