74
Lattice="30.0 0.0 0.0 0.0 22.52911 0.0 0.0 0.0 30.0" Properties=species:S:1:pos:R:3:forces:R:3 energy=-673.42371858 pbc="T T T"
Zr      15.62968000       2.72750000      16.15593000       0.36831900       0.84826500       0.25304900
Zr      13.82976000       0.65309000      11.14706000      -0.22623400       0.50458700      -1.01448400
Zr      13.34797000       0.26742000      17.36327000       1.30366900       0.50269800      -0.54335300
Zr      11.72012000      18.52251000      13.33453000       0.60734000      -1.25406200       1.45115500
Zr      19.36574000       0.03850000      13.61267000       0.80878900       0.15890600       0.31120800
Zr      18.50646000      18.47936000      16.72741000       0.03569500       1.17052800      -0.31673500
Zr      11.80763000       2.83871000      14.95633000       0.10649400       0.32320500       1.60087100
Zr       9.78856000      20.78953000      14.32665000      -0.79964500      -0.20724000      -0.31485400
Zr      16.70159000       5.67413000      17.34396000       0.66502300      -0.46042100      -0.15944500
Zr      16.07313000       1.78426000      13.21840000       0.38605200      -0.06931600      -1.07834600
Zr      16.54248000       0.38721000      18.96673000      -1.07114400       0.06430100       0.04605000
Zr      15.60104000      18.40696000      12.44764000       0.54545900      -0.12721300       0.69516100
Zr      10.32951000       0.43052000      16.86506000      -0.77601000       2.12913900      -1.27360600
Zr      10.99713000       1.19818000      12.39723000      -0.28431500       1.48924200      -0.42134300
Zr      15.85966000       8.29534000      15.66946000      -0.08830300      -0.87393300      -0.19691300
Zr      16.34680000      21.08075000      15.61041000      -0.36372400      -0.08076000       0.25799600
Zr      13.26924000      20.06170000      11.07108000      -0.17515700       0.05212800      -0.94300800
Zr      16.78439000      15.13083000      16.43206000       0.30543100      -0.05699100       0.03651400
Zr      14.52687000       5.42453000      15.03688000      -0.70190100       0.00765600      -0.64691000
Zr      18.02951000       2.92327000      18.50162000       0.22787100       1.20844300       0.08055200
Zr      13.25774000      21.89074000      13.97094000      -0.87231900      -0.98649000       1.73859800
Zr      14.19996000      15.51700000      14.22273000      -1.40713300       1.56586100      -1.14675700
Zr      19.38875000      22.12873000      16.78459000      -0.07514800       0.15340800      -0.39667400
Zr      18.46496000      19.36463000      13.28597000       0.16433200       0.80707000       0.15598900
O       11.97314000       0.22409000      15.71274000      -1.01654600      -0.54599100      -0.61945700
O       12.03943000       1.57969000      10.81506000      -0.01942700      -0.06703900      -0.35856100
O       15.26534000      16.15834000      15.74174000       0.25101000      -0.30814300       0.18442300
O       18.19618000      21.78323000      14.99329000      -0.06322200      -0.39450900       0.02621300
O       17.18716000      13.83938000      14.94010000      -0.07986100       0.25781700       0.66428800
O       11.73123000      20.39063000      14.44691000       0.02956700       0.00032700       0.02394100
O       15.38305000       3.60626000      14.19916000       0.26804300      -0.42459000       0.08500900
O       17.29458000      21.94660000      17.39415000      -0.54326700      -0.04599000       0.36696800
O       16.54964000      19.88469000      13.86117000       0.19090500      -0.22020600      -0.49490200
O       11.62132000       0.35761000      18.28507000      -0.17610000      -0.85108900       1.03000900
O       12.42120000      21.77961000      12.04657000       0.02318300       0.21668200       0.81988600
O       17.43269000       7.24535000      16.33058000      -0.03273400       0.45228600       0.07944700
O       16.75544000      19.35840000      16.51925000       0.34666100      -0.03476900       0.19731200
O       14.79365000      18.85945000      10.80524000       0.45062000      -0.07876800      -1.37209500
O       16.16119000       2.15799000      18.07927000       0.31970800      -0.51995300       0.04262000
O       12.65027000       1.39540000      13.52480000       0.55267600      -0.46948400       0.70838000
O        9.77238000      18.88385000      13.63910000      -0.15594000       0.81281400       0.44752900
O       19.21825000       1.42664000      17.70562000      -0.20599500       0.08363700       0.09215300
O       18.02649000       1.31297000      12.89515000      -0.54664500       0.36085800       0.29137700
O       18.02958000      16.57952000      17.17931000      -0.10244400      -0.54503200      -0.10364300
O       17.64297000      18.23245000      12.00078000      -0.88194900      -0.08348200       0.07015100
O        8.93774000      21.61786000      16.02341000       2.02451800       0.16379200      -0.36021100
O       12.68775000       4.63346000      15.03945000       0.54149100       0.00864400       0.10115500
O       17.65487000       1.63462000      20.05120000      -0.20447800      -0.40663000      -0.39692700
O       14.35837000      21.48381000      15.84452000      -0.32411900       0.19261400      -0.00955100
O       11.80105000      18.71396000      11.43773000       0.00423400       0.52574300      -1.06899300
O       14.39906000      13.49844000      14.29213000       0.11894300      -0.03188400       0.76132700
O       19.16140000      18.44662000      14.88174000      -0.21304800      -0.37757100       0.22485000
O       10.49431000       2.43180000      16.52614000       0.04368500      -1.36027400      -0.98949100
O       15.29194000       7.16902000      14.18865000      -0.03070800       0.00019000       0.05583600
O       17.58352000       4.91851000      19.00401000      -0.15609100      -0.66091000      -0.43531500
O       16.08673000       1.06678000      15.19005000       0.39347500      -0.10752600      -0.61711300
O       14.02909000      21.67351000       9.93569000      -0.16224500      -0.40652900       0.62000600
O       15.10657000      16.53437000      12.78387000       0.06936600      -0.38798700       0.55894900
O       19.58060000      20.91086000      12.60279000      -0.32570100      -0.01740800       0.09099100
O       10.61513000       3.00489000      13.46373000      -0.25652800      -1.52885000      -0.66400700
O       17.44494000       3.91506000      16.57396000      -0.29938300      -0.66543400       0.44852400
O       14.91439000      22.46774000      13.05647000       0.34019600       0.57469700      -0.63726100
O       14.56462000      22.46114000      18.90125000       1.22790200       0.06826100       0.15827800
O       12.50155000      16.73888000      14.04572000       0.59944800      -0.21053400       0.04818600
O       20.57621000       0.06524000      15.25300000      -0.29802500       0.39903000      -0.47979400
O        9.80366000      22.20263000      12.92185000      -0.24986600      -0.32859900       0.62362300
O       14.90116000       6.71610000      16.72687000       0.01003000       0.29083800       0.18234400
O       15.28685000       1.97864000      11.35501000       0.29748600       0.02227000       0.88461100
O       13.74742000       2.08524000      16.57698000      -0.41055900      -0.26448000       0.27058000
O       13.76671000      19.64350000      13.01262000       0.26032100       0.22936100       0.61660400
O       19.57499000      20.18111000      17.27852000      -0.18833200      -0.20731800       0.35669800
Zr      15.75126000      12.50104000      15.43051000      -0.38881300      -0.79845900      -0.88348100
O       15.73416000      10.37376000      15.50341000       0.28110500       0.30123300       0.15936400
O       15.83962000      13.45287000      17.13481000      -0.00479100       0.51474700       0.02333200
