74
Lattice="30.0 0.0 0.0 0.0 22.52911 0.0 0.0 0.0 30.0" Properties=species:S:1:pos:R:3:forces:R:3 energy=-673.37796063 pbc="T T T"
Zr      15.63221000       2.72698000      16.15355000       0.37034200       0.76027500       0.29285600
Zr      13.83031000       0.65204000      11.15068000      -0.26592800       0.40571200      -0.96885700
Zr      13.35235000       0.27168000      17.35831000       0.97798800       0.21061700      -0.23202400
Zr      11.72266000      18.52658000      13.33412000       0.62781100      -1.41290100       1.49948300
Zr      19.36462000       0.03976000      13.60832000       0.77537000       0.25732100       0.39081800
Zr      18.50348000      18.48200000      16.72962000       0.06711300       1.16609600      -0.32604600
Zr      11.81610000       2.83533000      14.95454000      -0.12509700       0.63037000       1.82685400
Zr       9.79132000      20.79125000      14.32685000      -0.92495500      -0.37997800      -0.14399000
Zr      16.70471000       5.66927000      17.34111000       0.67120700      -0.36796700      -0.20847400
Zr      16.07055000       1.78498000      13.21963000       0.49250900      -0.17810100      -1.03400200
Zr      16.54172000       0.38671000      18.96458000      -1.22851000       0.01552100       0.00165000
Zr      15.59697000      18.41020000      12.44903000       0.55585800      -0.13973000       0.62540700
Zr      10.33451000       0.42166000      16.86329000      -1.12613600       2.37628000      -1.29223300
Zr      11.00155000       1.19773000      12.39598000      -0.45610200       1.22564000      -0.38590000
Zr      15.85814000       8.29295000      15.66793000      -0.07763000      -0.89982900      -0.18730300
Zr      16.34328000      21.08095000      15.60854000      -0.24109500      -0.12788800       0.21780100
Zr      13.26672000      20.05821000      11.07299000      -0.03437800       0.09054400      -0.93120100
Zr      16.78414000      15.13059000      16.43235000       0.22052000       0.11146700       0.06525800
Zr      14.52640000       5.42360000      15.03429000      -0.65824700       0.01712400      -0.60104200
Zr      18.02853000       2.92133000      18.50467000       0.31677200       1.22936200      -0.04539200
Zr      13.25640000      21.90357000      13.97541000      -0.70834600      -1.16507400       1.64893400
Zr      14.19718000      15.51721000      14.22325000      -1.35882900       1.60922100      -1.07213600
Zr      19.38794000      22.12493000      16.78274000      -0.06260500       0.26023100      -0.38891800
Zr      18.46670000      19.37161000      13.28853000       0.11388000       0.75828500       0.23951900
O       11.97205000       0.18931000      15.72119000      -0.93946400      -0.40292800      -0.82264000
O       12.03736000       1.57435000      10.80784000      -0.12501800      -0.04470100      -0.20166300
O       15.26098000      16.16567000      15.74626000       0.32136800      -0.42447400       0.16866300
O       18.19929000      21.78645000      14.99631000      -0.13153600      -0.43384600      -0.03423600
O       17.18155000      13.84244000      14.94040000      -0.10221000       0.17454800       0.63070900
O       11.73476000      20.38523000      14.43408000       0.03750500       0.12218500       0.09040800
O       15.38787000       3.60212000      14.20167000       0.23178900      -0.41267000       0.05983600
O       17.28608000      21.93829000      17.39257000      -0.48840000       0.03421400       0.42997000
O       16.54521000      19.88817000      13.85687000       0.22367600      -0.20547000      -0.44482100
O       11.60505000       0.35590000      18.28409000       0.23897800      -0.85652400       1.09936900
O       12.41276000      21.78037000      12.05716000       0.02823400       0.35594900       0.79019600
O       17.43136000       7.25222000      16.33198000      -0.00684500       0.37690600       0.10866600
O       16.75131000      19.35422000      16.51939000       0.34775700       0.00495900       0.16639600
O       14.79657000      18.85983000      10.79698000       0.39845100      -0.04587600      -1.20493200
O       16.15744000       2.15795000      18.07360000       0.32759600      -0.55378500       0.06429300
O       12.65989000       1.41267000      13.52745000       0.51777500      -0.62822200       0.65534800
O        9.77949000      18.87696000      13.62913000      -0.20592100       0.92791400       0.50324000
O       19.22727000       1.42566000      17.71028000      -0.29429900       0.05411900       0.10711900
O       18.02358000       1.31775000      12.88884000      -0.53149700       0.32553300       0.32482900
O       18.03489000      16.58109000      17.17535000      -0.12963000      -0.58130800      -0.10713700
O       17.64252000      18.23817000      12.01022000      -0.90215400      -0.14180800       0.00412000
O        8.93212000      21.62622000      16.03444000       2.06939800       0.02552700      -0.50911900
O       12.68714000       4.64863000      15.03766000       0.44822800      -0.21374700       0.07982500
O       17.64398000       1.64443000      20.04589000      -0.18118000      -0.48450200      -0.28142200
O       14.36549000      21.48674000      15.84463000      -0.43477400       0.21484900      -0.00970800
O       11.80857000      18.71107000      11.43742000      -0.05526200       0.49441400      -1.13050300
O       14.38877000      13.49739000      14.29054000       0.26450200      -0.14341700       0.87724600
O       19.16840000      18.45711000      14.88691000      -0.24373900      -0.35909700       0.19003200
O       10.48155000       2.44763000      16.53199000       0.33899100      -1.58031400      -1.20952000
O       15.28884000       7.16101000      14.19043000      -0.00784000       0.04686700      -0.04285600
O       17.58324000       4.91369000      19.00005000      -0.16283500      -0.62199400      -0.38164200
O       16.08779000       1.05838000      15.19108000       0.35686100       0.02146400      -0.59792900
O       14.03381000      21.67556000       9.94844000      -0.16576700      -0.45273900       0.51289000
O       15.10201000      16.53594000      12.78370000       0.10934000      -0.32253700       0.52774700
O       19.58134000      20.91442000      12.60099000      -0.31007800      -0.03155100       0.05383700
O       10.61636000       3.00061000      13.46462000      -0.21347300      -1.57346900      -0.69210600
O       17.45567000       3.91344000      16.57420000      -0.39938900      -0.69699500       0.38796800
O       14.92733000      22.45679000      13.05100000       0.10534300       0.59469000      -0.53357000
O       14.55629000      22.46070000      18.90351000       1.37538000       0.10256200       0.15936200
O       12.50900000      16.73611000      14.04948000       0.53604500      -0.15692700       0.03555100
O       20.57357000       0.06664000      15.24933000      -0.27768500       0.38928400      -0.48501800
O        9.78011000      22.18730000      12.92773000       0.04711600       0.07699400       0.43685500
O       14.90454000       6.71305000      16.71932000      -0.02279100       0.25696600       0.27316200
O       15.27812000       1.97295000      11.36537000       0.38300300       0.17684800       0.78058700
O       13.73875000       2.06566000      16.57150000      -0.23857800       0.04993700       0.11731200
O       13.76127000      19.65454000      13.01291000       0.36638000       0.13993500       0.55697300
O       19.57583000      20.18607000      17.28460000      -0.19937100      -0.25250800       0.35351400
Zr      15.75098000      12.49953000      15.43370000      -0.49807800      -0.66510900      -0.82110200
O       15.73295000      10.36447000      15.50393000       0.27905200       0.46090500       0.15347200
O       15.84486000      13.45726000      17.14638000      -0.01020800       0.40536400      -0.17925000
