74
Lattice="30.0 0.0 0.0 0.0 22.52911 0.0 0.0 0.0 30.0" Properties=species:S:1:pos:R:3:forces:R:3 energy=-673.5197556 pbc="T T T"
Zr      15.66190000       2.73065000      16.13878000       0.62208700      -0.19099700       0.16963600
Zr      13.82916000       0.64781000      11.16895000      -0.37908800       0.32280000      -0.01066300
Zr      13.39380000       0.29557000      17.32622000      -0.95907400      -2.02450100       1.81659000
Zr      11.75510000      18.53458000      13.35167000       0.37424200      -1.02356500       0.01866000
Zr      19.36397000       0.05989000      13.57957000      -0.35650500       1.00804100       0.31808400
Zr      18.48067000      18.51967000      16.74449000       0.34778800      -0.18332800       0.11289100
Zr      11.87800000       2.82559000      14.97336000      -0.96956100       1.15527600       1.13531400
Zr       9.79795000      20.79475000      14.33133000      -0.38513600      -0.46276700      -0.04245100
Zr      16.74201000       5.62586000      17.31042000       0.29972500       0.41929800      -0.75624500
Zr      16.06054000       1.78374000      13.21558000       0.80611500      -0.81741500      -0.19637400
Zr      16.51190000       0.37949000      18.94675000      -0.54348100      -0.48125500       0.39612500
Zr      15.57038000      18.43538000      12.46466000       0.19146200      -0.02853900      -0.74394800
Zr      10.35212000       0.39179000      16.83123000      -0.35909000       2.33755500       0.56809200
Zr      11.02762000       1.20464000      12.38019000      -0.87622300      -1.20196400      -0.13356800
Zr      15.84422000       8.25936000      15.65240000       0.01844500       0.00200900      -0.03194900
Zr      16.31332000      21.07910000      15.59520000       0.28864400      -0.17367500       0.05067400
Zr      13.25335000      20.03116000      11.07486000       1.56441500       0.23281200      -0.40791100
Zr      16.78339000      15.13517000      16.43811000      -0.06574200       0.43365000       0.39767100
Zr      14.51539000       5.41619000      15.00423000       0.27865200      -0.03347300      -0.09962900
Zr      18.02810000       2.92245000      18.52582000       0.45969700      -0.23860700      -0.48610700
Zr      13.24012000      21.98594000      14.03636000       0.41214400      -2.08371400       0.35493300
Zr      14.15631000      15.54385000      14.21565000       0.38287900       0.28592100       0.35804200
Zr      19.37886000      22.10114000      16.76211000      -0.41926200       0.83755300       0.07837300
Zr      18.47963000      19.43855000      13.31632000      -0.81152700      -0.57805900       0.20587300
O       11.90178000      22.42180000      15.70291000       0.00291000       1.11662600      -0.00461900
O       11.99739000       1.53078000      10.75340000       0.15616900       0.19998000       0.14158100
O       15.25105000      16.17219000      15.78459000      -0.24726900      -0.45394700      -0.51321200
O       18.20514000      21.76434000      15.00489000      -0.11509100      -0.52500500      -0.37165600
O       17.12826000      13.86222000      14.98084000       0.28286800      -0.42135400      -0.37356800
O       11.76685000      20.36377000      14.34656000      -0.13339400      -0.02237000       0.34540700
O       15.43777000       3.54459000      14.22761000      -0.27023000       0.49818500       0.01602100
O       17.19062000      21.87837000      17.41219000       0.48211900       0.01789200      -0.36764600
O       16.53343000      19.90729000      13.79888000       0.19369100       0.25762300       0.47574500
O       11.55438000       0.26390000      18.36098000       1.24321500      -0.35784200      -0.77168200
O       12.34760000      21.84481000      12.20098000       0.26639800       0.57859600      -0.43207000
O       17.42607000       7.32467000      16.36121000       0.14216500      -0.40084600       0.21198600
O       16.74003000      19.33417000      16.52554000      -0.16062400       0.46089700      -0.20889000
O       14.84397000      18.86765000      10.67656000      -0.25885000       0.20544200       1.08043500
O       16.15236000       2.11115000      18.02477000       0.08590600      -0.00056900      -0.20473200
O       12.77555000       1.47965000      13.59872000      -0.18142100      -0.53946700       0.22051000
O        9.81791000      18.90665000      13.59727000      -0.09255300       0.14161800       0.39083400
O       19.26294000       1.40769000      17.75549000      -0.45301200      -0.50704000      -0.21327900
O       17.97484000       1.37255000      12.87410000       0.75744100      -0.32012600       0.41258100
O       18.07183000      16.55451000      17.13218000       0.18628400       0.44165800      -0.00735200
O       17.56365000      18.26898000      12.08481000       0.09201500      -0.06024700      -0.02215700
O        9.06296000      21.66872000      16.06055000       0.24864400      -0.94076000      -0.61263600
O       12.69588000       4.71302000      15.02660000      -0.42521800      -1.08158800       0.01085500
O       17.54732000       1.67719000      20.00759000       0.39028000      -0.15010900       0.67512900
O       14.36914000      21.53493000      15.84921000      -0.38981400       0.12539600       0.30378000
O       11.84628000      18.71699000      11.35757000      -0.73348500      -0.23018300       0.66918300
O       14.34499000      13.46335000      14.37436000       0.28645300       0.03205900       0.69033600
O       19.19872000      18.52117000      14.93107000      -0.31519900       0.01700800      -0.38723200
O       10.45628000       2.41468000      16.43261000       1.18753700      -1.08040700      -1.33927200
O       15.26593000       7.10540000      14.17978000       0.10794000       0.22895500      -0.45842300
O       17.56332000       4.83500000      18.94920000      -0.20247600       0.46981700       0.37996100
O       16.11953000       1.01546000      15.16311000      -0.03613400       0.51396000       0.34353900
O       14.05844000      21.64416000      10.07436000      -0.12153700      -0.24729500      -0.56964800
O       15.08601000      16.53862000      12.81920000       0.37586800       0.22282100       0.00562700
O       19.56507000      20.94114000      12.58157000       0.01519300       0.04532200      -0.19806900
O       10.61974000       2.82299000      13.41918000       0.08907000       0.01249800       0.45726400
O       17.49091000       3.83354000      16.59645000      -0.58097200      -0.26735400      -0.18761300
O       14.99523000      22.42098000      12.97960000      -1.07352600       0.47746400       0.28021000
O       14.60869000      22.47310000      18.92385000      -0.35396800       0.09805800      -0.46779900
O       12.59047000      16.72225000      14.08075000      -0.92751900       0.81056700      -0.07342100
O       20.53225000       0.11336000      15.17860000       0.08389200       0.22562700       0.12020800
O        9.62937000      22.13377000      12.98013000       0.94338400       1.27609800      -0.33555000
O       14.92498000       6.70114000      16.69686000      -0.13112400      -0.11505300       0.42189400
O       15.24289000       1.97435000      11.48116000      -0.12573500       0.85704900      -1.20176500
O       13.67055000       1.98457000      16.49600000       0.16262400       1.61189600      -0.68766600
O       13.76627000      19.73461000      13.04419000       0.48702700      -0.78325800      -0.41313100
O       19.56333000      20.20548000      17.36609000      -0.15419100       0.05909400       0.05527600
Zr      15.73762000      12.48126000      15.45081000      -0.54188500       0.32234300       0.10116000
O       15.74821000      10.34448000      15.52180000       0.15829900       0.13737700       0.09064000
O       15.88118000      13.50468000      17.19603000      -0.32833900      -0.45612300      -0.56163800
