74
Lattice="30.0 0.0 0.0 0.0 22.52911 0.0 0.0 0.0 30.0" Properties=species:S:1:pos:R:3:forces:R:3 energy=-673.53252281 pbc="T T T"
Zr      15.66938000       2.73151000      16.13686000       0.51093800      -0.29071900       0.06016800
Zr      13.82771000       0.64783000      11.17140000      -0.37315200       0.41537700       0.10631200
Zr      13.39965000       0.29444000      17.32501000      -1.04586700      -1.71180600       1.69907000
Zr      11.76283000      18.53169000      13.35669000       0.21977500      -0.70361000      -0.25168100
Zr      19.36387000       0.06648000      13.57560000      -0.53658100       0.96356400       0.18423600
Zr      18.47725000      18.52759000      16.74721000       0.39542700      -0.38311600       0.13704500
Zr      11.88651000       2.82799000      14.98219000      -0.70535600       0.86715100       0.58829700
Zr       9.79685000      20.79324000      14.33283000      -0.08353200      -0.16795800      -0.48466200
Zr      16.75047000       5.61843000      17.30268000       0.17121300       0.52810300      -0.81287600
Zr      16.06133000       1.78124000      13.21331000       0.67580100      -0.81845800      -0.12856500
Zr      16.50292000       0.37686000      18.94410000       0.06543700      -0.43986400       0.50640400
Zr      15.56636000      18.43981000      12.46631000       0.15154500       0.03526600      -0.82789300
Zr      10.35200000       0.39460000      16.82477000       0.21463300       1.95041000       0.96364100
Zr      11.02981000       1.20462000      12.37664000      -0.88283800      -1.86298500      -0.18682100
Zr      15.84156000       8.25192000      15.64924000       0.06041400       0.22087800       0.00475000
Zr      16.30842000      21.07805000      15.59297000       0.28010000      -0.10061300       0.03166900
Zr      13.25463000      20.02678000      11.07327000       1.63237800       0.18901500      -0.27350000
Zr      16.78312000      15.13770000      16.44031000      -0.04140100       0.22741000       0.33399200
Zr      14.51339000       5.41483000      14.99781000       0.33634100      -0.09834900      -0.02518000
Zr      18.02968000       2.92385000      18.52827000       0.35036400      -0.68273800      -0.41729800
Zr      13.23772000      21.99509000      14.05025000       0.41285000      -2.09436700       0.08981600
Zr      14.14794000      15.55155000      14.21403000       0.69893400      -0.05550800       0.52315300
Zr      19.37622000      22.09907000      16.75801000      -0.50170700       0.84473800       0.14163800
Zr      18.48037000      19.45055000      13.32257000      -0.96641400      -0.74627300       0.06560100
O       11.88496000      22.37827000      15.68981000       0.03537000       1.40494900       0.42085900
O       11.98820000       1.52492000      10.74707000       0.41287900       0.24810300      -0.01870100
O       15.24934000      16.16296000      15.78608000      -0.39521900      -0.32521200      -0.58252600
O       18.20264000      21.75025000      15.00063000      -0.01230500      -0.48073200      -0.36422000
O       17.12049000      13.85988000      14.98718000       0.39188500      -0.35577500      -0.47952100
O       11.77178000      20.36289000      14.33620000      -0.15606200      -0.19723100       0.31817100
O       15.44468000       3.53717000      14.23312000      -0.31848700       0.66477000      -0.04612100
O       17.17636000      21.86878000      17.41522000       0.60586500      -0.01102300      -0.53295100
O       16.53580000      19.91270000      13.79152000       0.11479300       0.34566200       0.62300100
O       11.56844000       0.23624000      18.37555000       1.10566000      -0.18524400      -1.23368200
O       12.33858000      21.86939000      12.22795000       0.35001900       0.37581200      -0.70306400
O       17.42744000       7.33458000      16.37076000       0.11080600      -0.48184800       0.16149400
O       16.73812000      19.33710000      16.52454000      -0.23186200       0.44107900      -0.22347100
O       14.85174000      18.87201000      10.66334000      -0.35381600       0.18947200       1.24086300
O       16.15435000       2.09842000      18.01307000       0.07594700       0.09422300      -0.14190600
O       12.79787000       1.47824000      13.61769000      -0.31306400      -0.30202300       0.19258100
O        9.82209000      18.92205000      13.60017000      -0.06921300      -0.18609800       0.31289100
O       19.26085000       1.39791000      17.76227000      -0.41956200      -0.55820900      -0.27582400
O       17.97196000       1.38014000      12.87931000       0.91942900      -0.35798000       0.36309100
O       18.07996000      16.55070000      17.12314000       0.22495200       0.63168900       0.02604900
O       17.54303000      18.27227000      12.09773000       0.40441300      -0.01815600      -0.01688700
O        9.10591000      21.66366000      16.05215000      -0.30500600      -1.00837800      -0.39534300
O       12.69295000       4.70612000      15.02478000      -0.37401200      -0.89081000       0.02704500
O       17.53321000       1.67675000      20.00952000       0.45956300       0.00348900       0.63909500
O       14.35971000      21.54755000      15.85328000      -0.19483900       0.04512600       0.40833300
O       11.84281000      18.71780000      11.34345000      -0.72238400      -0.28446900       0.96097200
O       14.34494000      13.45392000      14.40657000       0.05525400       0.26043600       0.44683400
O       19.19841000      18.53156000      14.93452000      -0.28755000       0.04235000      -0.35973200
O       10.47364000       2.38164000      16.38531000       0.89762700      -0.71354900      -0.95001400
O       15.26318000       7.09874000      14.16963000       0.11716600       0.22872200      -0.35857900
O       17.55599000       4.82215000      18.94266000      -0.19812100       0.66208400       0.46866700
O       16.12653000       1.01664000      15.15881000      -0.05686000       0.42190500       0.45453100
O       14.06052000      21.63083000      10.09246000      -0.11378900      -0.06771300      -0.67213700
O       15.08946000      16.54160000      12.82844000       0.32556800       0.17379400      -0.01823900
O       19.56046000      20.94616000      12.57516000       0.05849600       0.08032800      -0.19419700
O       10.62159000       2.77603000      13.41010000      -0.00379600       0.76338900       0.88586700
O       17.48563000       3.80975000      16.59973000      -0.41784100      -0.07550500      -0.21848900
O       14.99074000      22.42396000      12.96809000      -0.96976800       0.46575400       0.33569500
O       14.62720000      22.47846000      18.92255000      -1.03849100      -0.01778600      -0.51357200
O       12.59707000      16.72945000      14.08556000      -1.09599400       0.87136700      -0.05257000
O       20.52390000       0.12730000      15.16288000       0.15548200       0.19233200       0.33826600
O        9.61701000      22.14724000      12.98424000       0.92727100       1.04106500      -0.18253500
O       14.92641000       6.69852000      16.70157000      -0.10367800      -0.14249400       0.29627500
O       15.23917000       1.98926000      11.49172000      -0.29088200       0.78071300      -1.40014000
O       13.66184000       1.99839000      16.46973000       0.02972400       1.16803000      -0.43771000
O       13.77760000      19.73954000      13.04749000       0.37471100      -0.86300200      -0.52188100
O       19.55771000      20.20759000      17.38448000      -0.13977400       0.13632200      -0.02768900
Zr      15.73303000      12.47822000      15.45345000      -0.36646500       0.33323900       0.27245800
O       15.75488000      10.34881000      15.52716000       0.11716300      -0.15442900       0.07636600
O       15.88378000      13.50851000      17.19346000      -0.36698500      -0.46464100      -0.39190500
