74
Lattice="30.0 0.0 0.0 0.0 22.52911 0.0 0.0 0.0 30.0" Properties=species:S:1:pos:R:3:forces:R:3 energy=-672.95565352 pbc="T T T"
Zr      15.74037000       2.72213000      16.07005000       1.05660800      -0.49863700       0.09909900
Zr      13.80516000       0.74878000      11.15808000      -0.72989800      -1.72360000      -0.18948300
Zr      13.42185000       0.28115000      17.33636000      -0.42054800      -0.83484200       1.82448300
Zr      11.79528000      18.49543000      13.40701000       0.20224500      -0.10510300      -0.03301900
Zr      19.35977000       0.17864000      13.56010000      -0.38695200       0.83919200      -0.19870100
Zr      18.45920000      18.64417000      16.78742000      -0.47514200      -1.43128000      -0.49459800
Zr      12.05846000       2.87686000      14.97625000      -3.19677600      -0.67411200       0.43765200
Zr       9.85515000      20.77384000      14.22547000      -1.11830300      -0.78019600       2.21375900
Zr      16.85157000       5.56883000      17.12671000       0.15434800      -0.57185500       0.55100300
Zr      16.05611000       1.74416000      13.07837000       0.94668600       0.79590100       1.41167400
Zr      16.47064000       0.28698000      18.97011000       0.26097200       0.54150800       0.01144700
Zr      15.61714000      18.47108000      12.48821000       0.13996600      -0.68134300      -1.35708500
Zr      10.33903000       0.36310000      16.87281000      -0.80004500       0.85201200      -1.53023300
Zr      11.01496000       1.10984000      12.36283000       0.74949200       1.06890900       1.01502200
Zr      15.84366000       8.16995000      15.62762000       0.63060300       1.44332300       0.26759100
Zr      16.29427000      21.09100000      15.57660000       0.41395900      -0.00678600      -0.29856100
Zr      13.35266000      19.99084000      11.02288000       0.27636700       0.33822400       0.03831600
Zr      16.78639000      15.13658000      16.44399000      -0.17360700      -0.26964700       0.45264500
Zr      14.55367000       5.37239000      14.90077000       0.08188800       0.44160900      -0.34891300
Zr      18.02225000       2.82866000      18.56415000      -1.12399400       0.98884600      -0.25050600
Zr      13.18351000      21.92217000      14.21728000       0.85089800      -0.41369200      -2.67757500
Zr      14.05454000      15.61955000      14.25394000       1.34561400      -0.27177400       1.13631300
Zr      19.25627000      22.12063000      16.69829000      -0.05030800       0.48782300       0.85846500
Zr      18.39388000      19.63150000      13.40190000       0.11621400      -0.02632600      -0.47140600
O       12.04074000       0.12757000      15.69748000      -1.29856300       0.20994500       1.41959900
O       12.05120000       1.59356000      10.76889000      -0.11616000       0.10893500      -0.25976800
O       15.22215000      16.07204000      15.83887000      -0.60566300       0.35324900      -0.67395200
O       18.32479000      21.47033000      14.81582000      -0.82438500       0.28535200       0.71240300
O       17.11995000      13.78669000      15.04924000       0.07192400      -0.34528700      -0.50111100
O       11.80807000      20.40786000      14.37994000      -0.21592400      -0.70496600       0.23339900
O       15.44147000       3.56711000      14.10513000      -0.44680700      -0.27814300       0.43758600
O       17.19386000      21.95490000      17.31699000      -0.38507300      -0.63781800      -0.57354300
O       16.33686000      20.01161000      13.76792000       0.84262000       0.26069000       0.55882700
O       11.59861000      22.51838000      18.28870000       1.08089300       0.54217800      -0.33580300
O       12.45502000      21.82789000      12.18430000      -0.15449800       0.52712200       0.35495000
O       17.49958000       7.28045000      16.30034000      -0.05470900       0.02342800      -0.22458300
O       16.65053000      19.36227000      16.51286000       0.34234300       0.52150800      -0.06805400
O       14.89130000      18.78048000      10.63106000      -0.22334900       0.53807800       1.17836400
O       16.17853000       2.00529000      17.94506000       0.07056600      -0.22035700       0.39166800
O       12.70659000       1.37207000      13.68544000       0.54421300       0.01281800      -0.45765400
O        9.82893000      18.85921000      13.79211000       0.43731500      -0.25734600      -0.56437300
O       18.99454000       1.23601000      17.84413000       0.98034400      -0.27702900      -0.45070600
O       18.04839000       1.56610000      12.93603000       0.65637900      -0.92457300      -0.09354800
O       18.03445000      16.62430000      17.04171000       0.34086800       0.68361600       0.25653300
O       17.64458000      18.33509000      12.19189000      -0.27510200       0.24561400       0.09740300
O        9.26851000      21.30063000      16.09643000       0.99376100       1.05086900      -0.42674000
O       12.65364000       4.82775000      15.04221000       0.51020100      -1.22417600      -0.16943900
O       17.50055000       1.57499000      20.05327000      -0.06624000      -0.00807600       0.50231700
O       14.35843000      21.46884000      15.93815000      -0.36990100       0.39748700       0.42821200
O       11.78944000      18.82177000      11.45974000      -0.50414800      -0.37677500       0.08910700
O       14.16932000      13.63797000      14.76890000       0.45362700      -0.46174900      -0.53333500
O       19.12705000      18.64417000      14.95670000      -0.00438300       0.04613000       0.12258900
O       10.27776000       2.29074000      16.23305000       1.94018400      -1.25319000       0.10924500
O       15.28578000       7.13351000      14.09976000      -0.16088500      -0.51607900      -0.36988800
O       17.41753000       4.80669000      18.87866000       0.08616600       0.00171800       0.04515300
O       16.25536000       1.02628000      15.09758000      -0.11503900       0.27515000       0.50748300
O       13.96996000      21.65274000      10.03320000       0.23724500       0.37431600       0.04378600
O       15.16931000      16.61783000      12.92216000      -0.57926700      -0.62246400       0.49577700
O       19.46610000      21.09761000      12.46321000       0.10699600      -0.12145400       0.17082000
O       10.73184000       2.72235000      13.47055000       0.00076400       0.69492700       0.10760400
O       17.63745000       3.70143000      16.57055000      -0.86743900      -0.22716200      -0.31611300
O       14.87261000       0.09651000      13.09362000      -0.12322600      -0.54862400      -0.68961900
O       14.56892000      22.43077000      19.03873000      -0.33552400       0.15500000      -0.98280900
O       12.45079000      16.74147000      14.29675000      -0.42985400       0.64831100      -0.63253900
O       20.38289000       0.42588000      15.25110000       0.06599700      -0.17458400      -0.27949200
O        9.71224000      22.32109000      13.10293000      -0.51751700       0.24747400      -0.90734100
O       14.98164000       6.57620000      16.62176000      -0.02574800      -0.03914500       0.33681200
O       15.16324000       2.15574000      11.42723000       0.07944400       0.33859700      -1.20282500
O       13.71640000       2.06956000      16.54380000       0.19471000       0.65797400      -0.46289400
O       13.79418000      19.53267000      13.00546000       0.10027500      -0.01331500       0.10997800
O       19.43842000      20.28457000      17.50043000       0.29788000       0.12677500      -0.18088600
Zr      15.67133000      12.46659000      15.55000000      -0.49515800       0.18343400      -0.09932700
O       15.78004000      10.27788000      15.61175000      -0.18460900       0.10325400      -0.03955900
O       15.79790000      13.46473000      17.20031000       0.19130000       0.11610500       0.31416400
