74
Lattice="30.0 0.0 0.0 0.0 22.52911 0.0 0.0 0.0 30.0" Properties=species:S:1:pos:R:3:forces:R:3 energy=-673.02104985 pbc="T T T"
Zr      15.74484000       2.72072000      16.06606000       0.99403100      -0.58376000       0.08639200
Zr      13.80622000       0.75285000      11.15223000      -1.19903500      -1.78942900      -0.01364200
Zr      13.42426000       0.28233000      17.33932000      -0.68267000      -0.95279400       1.92218500
Zr      11.79237000      18.49314000      13.41299000       0.36484700      -0.02258400      -0.36318100
Zr      19.36083000       0.18506000      13.56252000      -0.42969600       0.76794600      -0.32389300
Zr      18.45718000      18.64672000      16.78846000      -0.44400500      -1.38995800      -0.61704000
Zr      12.05710000       2.87790000      14.97296000      -3.26030300      -0.97916500       0.45901600
Zr       9.85761000      20.76806000      14.22729000      -1.26077100      -0.48515200       1.78111700
Zr      16.85499000       5.56530000      17.12115000       0.20361800      -0.49106700       0.28312900
Zr      16.05598000       1.74947000      13.07077000       1.04713000       0.48305600       1.49908600
Zr      16.47335000       0.28218000      18.97488000       0.09084100       0.48275100      -0.27778900
Zr      15.62853000      18.46656000      12.48865000      -0.19962100      -0.63867200      -1.43578100
Zr      10.32939000       0.35579000      16.87254000      -0.23358900       1.09993200      -1.11537400
Zr      11.02006000       1.11630000      12.36867000       0.25125400       0.43311000       0.93778800
Zr      15.84800000       8.16974000      15.62942000       0.55223100       1.51526800       0.07815600
Zr      16.29991000      21.09303000      15.57727000      -0.00911800       0.04802800      -0.44350400
Zr      13.35839000      19.99381000      11.01787000       0.04660200       0.12285400       0.31603700
Zr      16.78741000      15.13510000      16.44395000      -0.41454300      -0.35598800       0.32596400
Zr      14.56256000       5.37246000      14.89497000      -0.28812300       0.33870000      -0.36643700
Zr      18.01656000       2.82533000      18.56635000      -1.20383300       0.83671300      -0.33990700
Zr      13.18259000      21.91180000      14.21491000       0.59191400      -0.28458000      -2.49331700
Zr      14.05376000      15.61971000      14.26171000       1.12021500      -0.16143900       1.08198700
Zr      19.24767000      22.12324000      16.69834000       0.00346900       0.49105000       0.76025800
Zr      18.38885000      19.64364000      13.40533000       0.11069100      -0.11487400      -0.58016900
O       12.04782000       0.16826000      15.71569000      -1.14049800      -0.04122300       0.98302200
O       12.03344000       1.60410000      10.78503000       0.30251900       0.05842100      -0.57269400
O       15.21742000      16.08278000      15.84173000      -0.38471200       0.20155900      -0.56859700
O       18.31996000      21.46557000      14.81941000      -0.75144400       0.33080700       0.64032200
O       17.11272000      13.76795000      15.04918000       0.21771900      -0.03638500      -0.41248600
O       11.79662000      20.40807000      14.38977000       0.11293700      -0.61198100       0.32228600
O       15.43420000       3.54901000      14.10153000      -0.46256300      -0.11427000       0.37114900
O       17.18545000      21.95663000      17.29882000      -0.32104300      -0.51671300      -0.31213500
O       16.32625000      20.00651000      13.75711000       0.94279800       0.38421700       0.71958300
O       11.58975000      22.52228000      18.31152000       0.97283100       0.55323500      -0.69970800
O       12.45689000      21.80837000      12.18837000      -0.04874300       0.60881700       0.22266600
O       17.50936000       7.28159000      16.27566000      -0.17844400      -0.06186600      -0.11203700
O       16.65160000      19.37003000      16.51363000       0.38630600       0.40642300      -0.02982600
O       14.89406000      18.77107000      10.62991000      -0.21620200       0.62212800       1.24573100
O       16.16881000       2.00996000      17.93677000       0.34661900      -0.37285900       0.74033100
O       12.68950000       1.36016000      13.65775000       0.83843700      -0.00551100      -0.11670800
O        9.84011000      18.86269000      13.79831000       0.24914200      -0.56910400      -0.60481900
O       18.99427000       1.23498000      17.84523000       0.90545600      -0.19039100      -0.36865400
O       18.06207000       1.56300000      12.93035000       0.33710500      -0.76364500      -0.09883000
O       18.02203000      16.62970000      17.04466000       0.37408500       0.64537100       0.24639700
O       17.64520000      18.34196000      12.19097000      -0.16413000       0.22460200       0.10272400
O        9.29592000      21.30184000      16.08009000       0.69395100       0.97772100      -0.09125800
O       12.64023000       4.81549000      15.04162000       0.89478400      -1.03128500      -0.18212600
O       17.49884000       1.55582000      20.06046000      -0.01471700       0.19385300       0.42414800
O       14.34798000      21.46001000      15.93955000      -0.16161300       0.39482900       0.39864900
O       11.78611000      18.83026000      11.44973000      -0.38634500      -0.34809200       0.22562900
O       14.17514000      13.63531000      14.77237000       0.32913000      -0.31488400      -0.58212500
O       19.12520000      18.64890000      14.95281000      -0.03254400       0.01976400       0.26084500
O       10.28826000       2.29601000      16.25769000       1.85826900      -1.20464400      -0.08382600
O       15.28439000       7.13017000      14.09333000      -0.11137500      -0.46854000      -0.21740700
O       17.41365000       4.80026000      18.86258000       0.11684600       0.00330700       0.24722200
O       16.26079000       1.02637000      15.09582000      -0.09553000       0.30022700       0.42120000
O       13.96241000      21.66499000      10.02978000       0.30181200       0.33438200      -0.04273800
O       15.16242000      16.61914000      12.92807000      -0.54718200      -0.68668300       0.52027400
O       19.45977000      21.10612000      12.46361000       0.12265700      -0.18216600       0.15687700
O       10.75084000       2.72355000      13.44624000      -0.18449600       1.12677400       0.49123000
O       17.63803000       3.69869000      16.55872000      -0.79935600      -0.20957600      -0.21070200
O       14.86984000       0.08818000      13.10003000       0.03051900      -0.30295900      -0.77466100
O       14.57401000      22.42821000      19.03994000      -0.21939200       0.14590900      -0.86500100
O       12.43558000      16.74122000      14.30029000      -0.22671200       0.48241900      -0.60472100
O       20.36880000       0.43920000      15.24748000       0.15671800      -0.18124900      -0.08196500
O        9.69821000      22.30950000      13.09731000      -0.33882300       0.38016100      -0.90863800
O       14.98527000       6.56632000      16.61391000       0.01909800       0.04306900       0.36612000
O       15.16536000       2.15024000      11.41690000       0.19161500       0.42283600      -1.16835700
O       13.73522000       2.06336000      16.56861000       0.21424700       0.90151600      -0.63012500
O       13.77785000      19.52656000      13.01697000       0.27905800      -0.03713300      -0.02277300
O       19.43952000      20.29030000      17.49483000       0.27561300       0.07545600      -0.13529400
Zr      15.66695000      12.47009000      15.55616000      -0.57321300      -0.12757900      -0.20201300
O       15.77119000      10.29284000      15.61363000      -0.13734100      -0.20135800      -0.02092300
O       15.79516000      13.45691000      17.20509000       0.27578000       0.37800000       0.43911300
