74
Lattice="30.0 0.0 0.0 0.0 22.52911 0.0 0.0 0.0 30.0" Properties=species:S:1:pos:R:3:forces:R:3 energy=-673.04956686 pbc="T T T"
Zr      15.74652000       2.72014000      16.06477000       0.95770300      -0.60618900       0.08842900
Zr      13.80633000       0.75381000      11.15030000      -1.32763000      -1.77953700       0.04710300
Zr      13.42491000       0.28252000      17.34069000      -0.76097200      -0.96640200       1.93277500
Zr      11.79149000      18.49238000      13.41489000       0.41902800      -0.00250800      -0.46156000
Zr      19.36109000       0.18733000      13.56325000      -0.43274100       0.72457500      -0.35216300
Zr      18.45643000      18.64726000      16.78867000      -0.42598900      -1.35762000      -0.64785200
Zr      12.05597000       2.87805000      14.97197000      -3.26238800      -1.08250300       0.47182900
Zr       9.85816000      20.76605000      14.22828000      -1.29665500      -0.38559700       1.59846300
Zr      16.85615000       5.56403000      17.11940000       0.21233100      -0.45882500       0.19131900
Zr      16.05616000       1.75132000      13.06859000       1.05584300       0.38426000       1.49207100
Zr      16.47426000       0.28071000      18.97640000       0.03738500       0.45277800      -0.37113400
Zr      15.63223000      18.46494000      12.48849000      -0.30414800      -0.63301300      -1.42836900
Zr      10.32616000       0.35362000      16.87220000      -0.03804300       1.18777800      -0.95678800
Zr      11.02181000       1.11854000      12.37078000       0.08315400       0.23723800       0.89857700
Zr      15.84954000       8.16998000      15.63004000       0.52009200       1.51477600       0.00962700
Zr      16.30178000      21.09370000      15.57740000      -0.15192800       0.06898100      -0.48560300
Zr      13.36029000      19.99481000      11.01628000      -0.04816700       0.05983400       0.40972300
Zr      16.78767000      15.13454000      16.44401000      -0.49084100      -0.37295600       0.27909100
Zr      14.56542000       5.37256000      14.89300000      -0.39220600       0.30227200      -0.36662200
Zr      18.01445000       2.82442000      18.56701000      -1.22060100       0.77066100      -0.36623400
Zr      13.18242000      21.90834000      14.21359000       0.50152100      -0.23600300      -2.40754600
Zr      14.05375000      15.61972000      14.26449000       1.02150100      -0.12480700       1.05816000
Zr      19.24485000      22.12420000      16.69852000       0.02222400       0.48375500       0.72258700
Zr      18.38723000      19.64759000      13.40634000       0.11737900      -0.13600200      -0.59932300
O       12.04872000       0.18160000      15.72296000      -1.06644900      -0.13416700       0.79846500
O       12.02787000       1.60764000      10.78971000       0.42730800       0.04031500      -0.67019700
O       15.21534000      16.08658000      15.84195000      -0.29443500       0.14655100      -0.51782200
O       18.31746000      21.46439000      14.82137000      -0.71214400       0.34967100       0.60069200
O       17.11057000      13.76169000      15.04864000       0.26242900       0.06981600      -0.37208900
O       11.79293000      20.40737000      14.39335000       0.22026200      -0.56717400       0.34955000
O       15.43127000       3.54290000      14.10082000      -0.46103900      -0.06464900       0.34187800
O       17.18229000      21.95653000      17.29242000      -0.29543900      -0.46260000      -0.20636200
O       16.32389000      20.00528000      13.75439000       0.95963200       0.40907400       0.74939500
O       11.58805000      22.52422000      18.31824000       0.92739000       0.54838700      -0.79892000
O       12.45742000      21.80269000      12.19001000      -0.01886500       0.62102900       0.17590700
O       17.51238000       7.28190000      16.26742000      -0.21646300      -0.08582600      -0.07669500
O       16.65240000      19.37310000      16.51383000       0.39422300       0.35953500      -0.01443700
O       14.89470000      18.76872000      10.63101000      -0.20622100       0.63970100       1.24265900
O       16.16597000       2.01107000      17.93486000       0.43423400      -0.41152900       0.84082900
O       12.68483000       1.35626000      13.64845000       0.93264000      -0.01279100       0.00902100
O        9.84412000      18.86322000      13.79962000       0.17311300      -0.65200100      -0.60694100
O       18.99529000       1.23439000      17.84512000       0.86590900      -0.14436400      -0.32761300
O       18.06704000       1.56102000      12.92838000       0.21593200      -0.69383200      -0.10400800
O       18.01841000      16.63225000      17.04593000       0.37067800       0.60885000       0.23969200
O       17.64518000      18.34448000      12.19079000      -0.13022200       0.20958700       0.09527400
O        9.30581000      21.30343000      16.07454000       0.57806100       0.93495500       0.01871900
O       12.63682000       4.81018000      15.04122000       1.00175000      -0.95491200      -0.18414300
O       17.49825000       1.54973000      20.06334000       0.00523800       0.25910300       0.39247400
O       14.34431000      21.45759000      15.94050000      -0.09918600       0.39276100       0.37789800
O       11.78452000      18.83261000      11.44669000      -0.33141000      -0.32654700       0.25415200
O       14.17748000      13.63402000      14.77281000       0.28912000      -0.26995100      -0.59380700
O       19.12456000      18.65048000      14.95182000      -0.04048300       0.01151200       0.29294300
O       10.29395000       2.29627000      16.26572000       1.81166900      -1.16304400      -0.14684000
O       15.28379000       7.12850000      14.09092000      -0.09114300      -0.44108000      -0.15823100
O       17.41251000       4.79816000      18.85755000       0.12731400       0.00017900       0.31247400
O       16.26245000       1.02675000      15.09578000      -0.08701800       0.30312400       0.37805400
O       13.96028000      21.66942000      10.02864000       0.31761300       0.30140500      -0.07148400
O       15.15950000      16.61876000      12.93063000      -0.52332200      -0.68535400       0.51211700
O       19.45783000      21.10870000      12.46393000       0.12649900      -0.20131700       0.15230700
O       10.75689000       2.72519000      13.43877000      -0.24267900       1.25463100       0.60439900
O       17.63724000       3.69754000      16.55456000      -0.76706500      -0.20180300      -0.17098800
O       14.86893000       0.08502000      13.10122000       0.08602700      -0.21969400      -0.79478100
O       14.57539000      22.42754000      19.03926000      -0.17289300       0.14058700      -0.81332800
O       12.43027000      16.74176000      14.30072000      -0.15154200       0.41646500      -0.58962200
O       20.36435000       0.44335000      15.24614000       0.18596100      -0.18143300      -0.01739800
O        9.69316000      22.30613000      13.09438000      -0.27906000       0.39527700      -0.88474800
O       14.98647000       6.56312000      16.61177000       0.03646800       0.07493000       0.37122000
O       15.16626000       2.14893000      11.41209000       0.23742700       0.43003900      -1.11936000
O       13.74164000       2.06235000      16.57602000       0.22089400       0.95952400      -0.67254100
O       13.77279000      19.52452000      13.02074000       0.33679000      -0.03681900      -0.06417900
O       19.44022000      20.29229000      17.49283000       0.26589800       0.05493300      -0.11959500
Zr      15.66540000      12.47122000      15.55814000      -0.59616200      -0.22682000      -0.23121600
O       15.76811000      10.29757000      15.61422000      -0.12153500      -0.29409300      -0.01498200
O       15.79457000      13.45474000      17.20715000       0.30450900       0.46204800       0.46973300
