74
Lattice="30.0 0.0 0.0 0.0 22.52911 0.0 0.0 0.0 30.0" Properties=species:S:1:pos:R:3:forces:R:3 energy=-673.18137853 pbc="T T T"
Zr      15.75413000       2.71718000      16.05978000       0.74117800      -0.66372500       0.13259200
Zr      13.80528000       0.75577000      11.14278000      -1.67030500      -1.57715900       0.29544100
Zr      13.42663000       0.28227000      17.34814000      -1.02183600      -0.87296900       1.85180300
Zr      11.78849000      18.48939000      13.42182000       0.63714800       0.04382300      -0.80661900
Zr      19.36166000       0.19702000      13.56574000      -0.38671600       0.45774400      -0.40216900
Zr      18.45302000      18.64801000      16.78881000      -0.31476100      -1.15654400      -0.71536900
Zr      12.04807000       2.87739000      14.96859000      -3.16325900      -1.48771100       0.54722700
Zr       9.85893000      20.75779000      14.23368000      -1.36366500      -0.03859400       0.72512500
Zr      16.86098000       5.55857000      17.11257000       0.21030400      -0.31748400      -0.16622800
Zr      16.05794000       1.75897000      13.06151000       0.97176400       0.03132600       1.30791500
Zr      16.47787000       0.27535000      18.98192000      -0.13086600       0.31426100      -0.69572500
Zr      15.64647000      18.45787000      12.48641000      -0.67332500      -0.63785500      -1.23222900
Zr      10.31352000       0.34635000      16.87001000       0.74541300       1.58623100      -0.25395900
Zr      11.02865000       1.12746000      12.38005000      -0.53800000      -0.37432500       0.67832100
Zr      15.85617000       8.17254000      15.63240000       0.36740900       1.41015900      -0.26900200
Zr      16.30886000      21.09646000      15.57737000      -0.70934900       0.15056800      -0.62727800
Zr      13.36765000      19.99880000      11.01052000      -0.48398100      -0.13064900       0.77437200
Zr      16.78810000      15.13193000      16.44450000      -0.74062700      -0.38065500       0.10162100
Zr      14.57625000       5.37323000      14.88479000      -0.71620100       0.14354300      -0.33553900
Zr      18.00479000       2.82156000      18.56920000      -1.23130200       0.46344400      -0.43914400
Zr      13.18221000      21.89444000      14.20597000       0.19788700      -0.04818300      -1.99989600
Zr      14.05467000      15.61968000      14.27657000       0.55284700       0.00335700       0.93824600
Zr      19.23372000      22.12850000      16.69995000       0.10299400       0.41272500       0.55753100
Zr      18.38094000      19.66309000      13.40969000       0.18862900      -0.19538900      -0.59099600
O       12.04639000       0.23306000      15.75535000      -0.71098300      -0.51428900      -0.01669900
O       12.00904000       1.62175000      10.80373000       0.79521700      -0.05184200      -0.95107300
O       15.20593000      16.10218000      15.84008000       0.09610000      -0.06799300      -0.26140900
O       18.30358000      21.46196000      14.83247000      -0.48183200       0.43897100       0.37421700
O       17.10387000      13.73793000      15.04455000       0.39283600       0.45979200      -0.17922900
O       11.78018000      20.40151000      14.40978000       0.56633000      -0.35635900       0.43085000
O       15.41692000       3.51860000      14.09986000      -0.42021100       0.10915500       0.20799100
O       17.16819000      21.95376000      17.26653000      -0.16717000      -0.20106800       0.27743800
O       16.32031000      20.00290000      13.74821000       0.94239800       0.41564300       0.74717200
O       11.58658000       0.00603000      18.33959000       0.73294200       0.48912500      -1.07062600
O       12.45953000      21.78393000      12.19726000       0.06151500       0.60436300      -0.01936500
O       17.52284000       7.28253000      16.23450000      -0.33856700      -0.15514400       0.05712200
O       16.65796000      19.38707000      16.51466000       0.38403700       0.14609700       0.05340400
O       14.89609000      18.76330000      10.64272000      -0.13469300       0.65758400       1.10949800
O       16.15781000       2.01286000      17.93283000       0.73157300      -0.49662500       1.12194800
O       12.67245000       1.34071000      13.61244000       1.23346300      -0.01820000       0.51791000
O        9.86056000      18.86106000      13.80121000      -0.17041500      -0.83033500      -0.55514600
O       19.00425000       1.23150000      17.84302000       0.65869800       0.09455200      -0.12056200
O       18.08727000       1.54950000      12.91988000      -0.29186100      -0.35285900      -0.14792600
O       18.00620000      16.64572000      17.05232000       0.29869300       0.36138100       0.19625500
O       17.64450000      18.35562000      12.19058000      -0.01281400       0.11520900       0.02917600
O        9.34768000      21.31499000      16.05331000       0.04460000       0.66026200       0.40982700
O       12.62985000       4.78394000      15.03850000       1.31181800      -0.59522700      -0.17449800
O       17.49606000       1.52752000      20.07690000       0.08650400       0.48835400       0.23684400
O       14.32951000      21.45036000      15.94637000       0.10011700       0.38688400       0.25793000
O       11.77662000      18.84013000      11.43628000      -0.06283800      -0.20231700       0.29656300
O       14.18822000      13.62754000      14.77099000       0.14352800      -0.12623900      -0.61130400
O       19.12175000      18.65676000      14.94975000      -0.06671600      -0.01312400       0.33850900
O       10.32700000       2.29067000      16.29623000       1.52754600      -0.87799500      -0.39137300
O       15.28099000       7.11945000      14.08079000      -0.00074100      -0.27997600       0.08488900
O       17.40884000       4.78981000      18.83989000       0.17121700      -0.02181400       0.53866800
O       16.26856000       1.03008000      15.09757000      -0.04396500       0.28142200       0.15584600
O       13.95383000      21.68849000      10.02349000       0.35626500       0.07760700      -0.18327100
O       15.14498000      16.61322000      12.94369000      -0.36419500      -0.57023400       0.38904100
O       19.45096000      21.11761000      12.46611000       0.13648500      -0.26236600       0.13792500
O       10.77908000       2.73981000      13.41339000      -0.43226800       1.58469800       0.93403400
O       17.62975000       3.69181000      16.53733000      -0.59301000      -0.15963800       0.00315800
O       14.86616000       0.07167000      13.10107000       0.30334800       0.08929300      -0.83352300
O       14.58006000      22.42571000      19.03205000       0.01244300       0.10406200      -0.56358800
O       12.40880000      16.74600000      14.29898000       0.15570700       0.12740700      -0.50361100
O       20.34800000       0.45867000      15.24112000       0.28848900      -0.17975700       0.21503900
O        9.67184000      22.29513000      13.07769000      -0.03668200       0.33641600      -0.68366500
O       14.99154000       6.55108000      16.60553000       0.10894900       0.21363200       0.37055200
O       15.17150000       2.14627000      11.38677000       0.42500500       0.35829300      -0.78139000
O       13.76838000       2.06432000      16.60113000       0.21634800       1.03375600      -0.76470700
O       13.75510000      19.51625000      13.03506000       0.55008100       0.00126900      -0.21987100
O       19.44451000      20.30034000      17.48425000       0.22004400      -0.03413400      -0.05541300
Zr      15.65860000      12.47537000      15.56572000      -0.65250500      -0.56600600      -0.29839500
O       15.75529000      10.31407000      15.61648000      -0.05765600      -0.59383400       0.00512600
O       15.79423000      13.44936000      17.21824000       0.40984800       0.75221700       0.50478800
