74
Lattice="30.0 0.0 0.0 0.0 22.52911 0.0 0.0 0.0 30.0" Properties=species:S:1:pos:R:3:forces:R:3 energy=-673.35316693 pbc="T T T"
Zr      15.76540000       2.71188000      16.05384000       0.34836100      -0.66263800       0.27420100
Zr      13.80000000       0.75457000      11.13408000      -1.61550700      -1.02047900       0.59113100
Zr      13.42633000       0.27996000      17.36187000      -1.18395900      -0.44249900       1.46326000
Zr      11.78629000      18.48573000      13.42857000       0.91513400       0.04153400      -1.12339300
Zr      19.36149000       0.21022000      13.56794000      -0.22035100       0.00513600      -0.32211000
Zr      18.44802000      18.64625000      16.78730000      -0.09279900      -0.80488000      -0.65891900
Zr      12.03063000       2.87294000      14.96568000      -2.74781100      -1.86169800       0.70572900
Zr       9.85667000      20.74731000      14.24200000      -1.23281900       0.14852300      -0.46286400
Zr      16.86754000       5.55097000      17.10354000       0.15031300      -0.13409400      -0.51050500
Zr      16.06245000       1.76863000      13.05563000       0.65858100      -0.28757900       0.82609900
Zr      16.48210000       0.26933000      18.98719000      -0.16364000       0.16607600      -0.89568500
Zr      15.66273000      18.44744000      12.48096000      -0.98037700      -0.66444800      -0.64398300
Zr      10.29954000       0.34112000      16.86681000       1.65083500       2.16685900       0.69260500
Zr      11.03591000       1.13781000      12.39327000      -1.02024100      -0.56149100       0.31945900
Zr      15.86534000       8.17907000      15.63469000       0.13561000       1.08625300      -0.57571000
Zr      16.31598000      21.10030000      15.57582000      -1.34108000       0.23404200      -0.72253600
Zr      13.37565000      20.00351000      11.00518000      -1.05166100      -0.19756200       1.15517100
Zr      16.78687000      15.12775000      16.44535000      -0.85799000      -0.27086900      -0.03175600
Zr      14.58815000       5.37438000      14.87369000      -0.93251800      -0.09770600      -0.21837900
Zr      17.98971000       2.81900000      18.57091000      -1.09415000       0.05446500      -0.41242300
Zr      13.18242000      21.87686000      14.19167000       0.07735700       0.13858600      -1.43090600
Zr      14.05705000      15.61964000      14.29400000      -0.08949100       0.08647700       0.76083700
Zr      19.21999000      22.13487000      16.70307000       0.21303100       0.27292500       0.38784300
Zr      18.37352000      19.68212000      13.41253000       0.36863700      -0.25497500      -0.40864200
O       12.03424000       0.29039000      15.79499000      -0.20789200      -0.95505300      -0.99045400
O       11.99609000       1.63860000      10.80858000       0.86203100      -0.23021000      -0.91700100
O       15.19579000      16.12071000      15.83450000       0.52988300      -0.27183200       0.10090400
O       18.27997000      21.46503000      14.85112000      -0.06623200       0.55902700      -0.02520600
O       17.10076000      13.71453000      15.03721000       0.40237300       0.76863200       0.08915500
O       11.77182000      20.38952000      14.43631000       0.67073500      -0.09381500       0.44434200
O       15.39328000       3.48963000      14.10133000      -0.29702700       0.26922600       0.03319000
O       17.14838000      21.94788000      17.23835000       0.04189400       0.15900500       0.89995600
O       16.32841000      20.00534000      13.75031000       0.73455800       0.24776400       0.51925500
O       11.59454000       0.02626000      18.35193000       0.49026300       0.32767600      -1.11997600
O       12.46298000      21.76844000      12.20588000       0.05236600       0.48548900      -0.27451900
O       17.53136000       7.28120000      16.19401000      -0.39734500      -0.19356000       0.20668000
O       16.67003000      19.40641000      16.51649000       0.26005900      -0.11579700       0.12711100
O       14.89614000      18.76534000      10.67211000      -0.00143300       0.57212100       0.68172400
O       16.15763000       2.00845000      17.94543000       0.90534200      -0.43706700       1.11434300
O       12.67364000       1.32103000      13.57463000       1.28654100       0.07651100       1.01233600
O        9.87847000      18.84734000      13.79585000      -0.61878000      -0.66560300      -0.36944700
O       19.02422000       1.22948000      17.83901000       0.35691000       0.40997600       0.15803900
O       18.10822000       1.53067000      12.90707000      -0.86299900       0.13673400      -0.23318600
O       17.99473000      16.66710000      17.06299000       0.12742000      -0.09723700       0.12577300
O       17.64354000      18.37102000      12.19055000       0.08276900      -0.05026200      -0.11219200
O        9.40027000      21.33793000      16.03232000      -0.68425900       0.09514200       0.65926900
O       12.63902000       4.74331000      15.03277000       1.45359000      -0.08792200      -0.12872600
O       17.49456000       1.50634000      20.09698000       0.16238600       0.64851700       0.01556800
O       14.31232000      21.44657000      15.95707000       0.23032000       0.38650100       0.05648200
O       11.76617000      18.84702000      11.42713000       0.29508800      -0.01784000       0.25057000
O       14.20361000      13.61769000      14.76040000       0.00842700      -0.04152600      -0.56582100
O       19.11729000      18.66450000      14.95157000      -0.08206000      -0.01752700       0.20684900
O       10.38887000       2.27229000      16.32908000       0.97790200      -0.29382800      -0.63328800
O       15.27756000       7.10454000      14.06942000       0.11679500       0.01067200       0.32942800
O       17.40658000       4.77901000      18.82511000       0.19791400      -0.02293300       0.68791900
O       16.27572000       1.03795000      15.10163000       0.03198600       0.15672500      -0.17350200
O       13.95054000      21.71306000      10.01443000       0.33503700      -0.35001700      -0.29328100
O       15.12208000      16.59888000      12.96507000      -0.05414200      -0.23884800       0.07242800
O       19.44419000      21.12525000      12.47072000       0.15061700      -0.27168900       0.12678300
O       10.80106000       2.77941000      13.39407000      -0.54223200       1.40001100       0.96123900
O       17.61253000       3.68252000      16.51590000      -0.28959300      -0.07652400       0.22987100
O       14.86696000       0.05629000      13.08958000       0.49490500       0.36185500      -0.78791600
O       14.58621000      22.42474000      19.01563000       0.15255600       0.02089000      -0.20391700
O       12.38418000      16.75276000      14.29006000       0.48025000      -0.21898500      -0.35548900
O       20.33142000       0.47550000      15.23784000       0.36050800      -0.17248500       0.38879400
O        9.64482000      22.28560000      13.04781000       0.28224200       0.11375800      -0.27965100
O       14.99950000       6.53901000      16.60271000       0.19396000       0.38438400       0.33416300
O       15.18399000       2.14745000      11.34488000       0.55400400       0.06905500      -0.19068200
O       13.80486000       2.08049000      16.62243000       0.11256600       0.75121900      -0.69469900
O       13.74051000      19.50600000      13.04997000       0.74966800       0.10976600      -0.36637200
O       19.45285000      20.30992000      17.47277000       0.14768700      -0.12600200       0.01321300
Zr      15.64850000      12.47921000      15.57456000      -0.58210800      -0.77952200      -0.24071800
O       15.73844000      10.32663000      15.61941000       0.01467400      -0.76501400       0.02326100
O       15.79945000      13.45296000      17.23880000       0.48517700       0.93053000       0.31750100
