74
Lattice="30.0 0.0 0.0 0.0 22.52911 0.0 0.0 0.0 30.0" Properties=species:S:1:pos:R:3:forces:R:3 energy=-673.43354824 pbc="T T T"
Zr      15.77282000       2.70777000      16.05053000       0.07471600      -0.62061400       0.38240900
Zr      13.79467000       0.75242000      11.12945000      -1.32035300      -0.60369100       0.72280400
Zr      13.42465000       0.27789000      17.37223000      -1.16643400      -0.07532700       1.09328400
Zr      11.78606000      18.48353000      13.43131000       1.06038000       0.02898900      -1.24733000
Zr      19.36108000       0.21840000      13.56886000      -0.10169900      -0.25272000      -0.22035300
Zr      18.44480000      18.64408000      16.78551000       0.07777300      -0.58763300      -0.55307900
Zr      12.01634000       2.86789000      14.96478000      -2.30993700      -1.94397200       0.82231000
Zr       9.85368000      20.74106000      14.24672000      -1.04037900       0.11395400      -1.07020600
Zr      16.87176000       5.54611000      17.09740000       0.09810600      -0.03112000      -0.62205200
Zr      16.06612000       1.77424000      13.05318000       0.41433900      -0.40765300       0.48149800
Zr      16.48448000       0.26588000      18.98931000      -0.06239800       0.11270200      -0.85928000
Zr      15.67150000      18.44021000      12.47668000      -1.06415400      -0.67040800      -0.16005800
Zr      10.29294000       0.34059000      16.86557000       2.10889600       2.49830100       1.21566000
Zr      11.03913000       1.14346000      12.40184000      -1.07851900      -0.36656800       0.09875700
Zr      15.87117000       8.18453000      15.63541000      -0.01417300       0.81717600      -0.71595600
Zr      16.31873000      21.10295000      15.57396000      -1.64928900       0.27443200      -0.70794700
Zr      13.37931000      20.00616000      11.00332000      -1.33549600      -0.14560600       1.31462900
Zr      16.78503000      15.12483000      16.44585000      -0.80207700      -0.15703900      -0.04515200
Zr      14.59428000       5.37500000      14.86659000      -0.96579600      -0.26244600      -0.10523600
Zr      17.97904000       2.81757000      18.57142000      -0.91392900      -0.15266900      -0.31021600
Zr      13.18267000      21.86623000      14.18097000       0.16202500       0.21873000      -1.08660800
Zr      14.05850000      15.61971000      14.30568000      -0.43124900       0.08814800       0.65940400
Zr      19.21183000      22.13916000      16.70550000       0.28082200       0.20027800       0.34133900
Zr      18.36941000      19.69347000      13.41371000       0.50976100      -0.31448700      -0.24768000
O       12.02476000       0.31898000      15.81301000       0.08245100      -1.17943800      -1.44081100
O       11.99442000       1.64743000      10.80478000       0.68965900      -0.36349600      -0.67045500
O       15.19302000      16.13029000      15.83145000       0.69229800      -0.33958400       0.28577500
O       18.26459000      21.47088000      14.86277000       0.20598500       0.61869700      -0.28144700
O       17.10179000      13.70551000      15.03309000       0.30988800       0.81471900       0.23738900
O       11.77153000      20.38122000      14.45582000       0.53341600       0.02268200       0.38604400
O       15.37648000       3.47369000      14.10265000      -0.18608500       0.33389900      -0.05400500
O       17.13633000      21.94507000      17.22703000       0.17242600       0.33456500       1.18855800
O       16.33897000      20.00884000      13.75564000       0.52567400       0.09530400       0.31690200
O       11.60325000       0.04123000      18.35132000       0.33700300       0.19903000      -1.00646900
O       12.46549000      21.76262000      12.20942000      -0.01310100       0.39415300      -0.41594000
O       17.53373000       7.27899000      16.17056000      -0.37201500      -0.19824200       0.28211700
O       16.67947000      19.41769000      16.51846000       0.12514400      -0.22559400       0.14870400
O       14.89603000      18.77087000      10.69555000       0.08145200       0.47818500       0.30364000
O       16.16397000       2.00248000      17.96134000       0.85835400      -0.32081200       0.89334700
O       12.68374000       1.30943000      13.55837000       1.07825000       0.19387900       1.14573500
O        9.88538000      18.83386000      13.78967000      -0.83068000      -0.39491200      -0.21936700
O       19.03937000       1.23092000      17.83742000       0.19120000       0.54112000       0.28433000
O       18.11532000       1.51963000      12.89760000      -1.08773900       0.38778100      -0.27739300
O       17.98881000      16.67997000      17.07051000       0.01971500      -0.38554200       0.08523000
O       17.64346000      18.38027000      12.18986000       0.11345100      -0.14757700      -0.20239900
O        9.42823000      21.35327000      16.02405000      -1.08462700      -0.31280600       0.63982600
O       12.65515000       4.71723000      15.02826000       1.40063700       0.17088100      -0.08713500
O       17.49475000       1.49795000      20.10963000       0.18346400       0.65789900      -0.11541300
O       14.30335000      21.44707000      15.96425000       0.25998200       0.38312000      -0.07292600
O       11.76156000      18.85092000      11.42342000       0.46836400       0.07288400       0.20910500
O       14.21323000      13.61127000      14.74973000      -0.04545200      -0.03768900      -0.50129600
O       19.11397000      18.66911000      14.95434000      -0.07992300      -0.00888000       0.04748800
O       10.43451000       2.25827000      16.34482000       0.55830700       0.13147100      -0.71066200
O       15.27619000       7.09518000      14.06461000       0.17902000       0.21662200       0.40912900
O       17.40662000       4.77223000      18.82094000       0.18692600       0.01300100       0.67928800
O       16.28026000       1.04406000      15.10318000       0.08747000       0.02237500      -0.35929600
O       13.95099000      21.72599000      10.00683000       0.28595400      -0.62013700      -0.31916400
O       15.10733000      16.58799000      12.97903000       0.15239800      -0.00296400      -0.16455100
O       19.44113000      21.12796000      12.47449000       0.16898400      -0.22500800       0.12103200
O       10.81066000       2.81416000      13.38926000      -0.55717200       0.96276400       0.76831800
O       17.59955000       3.67618000      16.50422000      -0.07371800      -0.01114000       0.35513100
O       14.87089000       0.04924000      13.07672000       0.53172300       0.43597000      -0.71339400
O       14.59097000      22.42438000      19.00371000       0.14558900      -0.04765600       0.00357200
O       12.37229000      16.75564000      14.28184000       0.60776600      -0.37725600      -0.26098000
O       20.32383000       0.48455000      15.23850000       0.36464500      -0.17367200       0.40285800
O        9.63000000      22.28084000      13.02703000       0.47571500      -0.01812200      -0.01982800
O       15.00571000       6.53425000      16.60346000       0.23050300       0.46604700       0.30114600
O       15.19557000       2.14898000      11.31721000       0.52435400      -0.17090200       0.15618700
O       13.82815000       2.09620000      16.63032000      -0.01403700       0.42401700      -0.56582000
O       13.73686000      19.50040000      13.05656000       0.80939900       0.19077600      -0.41240600
O       19.45911000      20.31497000      17.46576000       0.09693100      -0.16021500       0.04132000
Zr      15.64155000      12.48060000      15.57966000      -0.44334000      -0.77994600      -0.14018500
O       15.72814000      10.32890000      15.62135000       0.05210300      -0.73734300       0.02898200
O       15.80613000      13.46180000      17.25393000       0.47512300       0.91027900       0.10085800
