74
Lattice="30.0 0.0 0.0 0.0 22.52911 0.0 0.0 0.0 30.0" Properties=species:S:1:pos:R:3:forces:R:3 energy=-673.48063579 pbc="T T T"
Zr      15.78297000       2.70129000      16.04662000      -0.29372000      -0.51369300       0.49888700
Zr      13.78556000       0.74866000      11.12425000      -0.68177300      -0.10254000       0.79038800
Zr      13.42066000       0.27504000      17.38785000      -0.96738400       0.43971100       0.48534700
Zr      11.78735000      18.48060000      13.43318000       1.17069600       0.02865200      -1.32281800
Zr      19.36037000       0.22910000      13.56980000       0.00353400      -0.47323600      -0.06864900
Zr      18.44057000      18.64028000      16.78229000       0.32643900      -0.34844100      -0.35207000
Zr      11.99360000       2.85816000      14.96479000      -1.48808600      -1.81492600       0.95000600
Zr       9.84811000      20.73271000      14.25147000      -0.71369900      -0.03311200      -1.62508500
Zr      16.87764000       5.53948000      17.08815000       0.02762400       0.09156300      -0.64178400
Zr      16.07168000       1.78124000      13.05051000       0.07575700      -0.49312200       0.03387700
Zr      16.48767000       0.26136000      18.99094000       0.19686200       0.07567500      -0.60498500
Zr      15.68181000      18.42938000      12.47073000      -1.04617100      -0.65679000       0.52991800
Zr      10.28717000       0.34363000      16.86576000       2.56022300       2.77875700       1.69728800
Zr      11.04192000       1.15064000      12.41360000      -0.91188800       0.07031800      -0.17216400
Zr      15.87905000       8.19310000      15.63530000      -0.20846200       0.40558600      -0.83845700
Zr      16.31997000      21.10695000      15.57040000      -1.92444200       0.32887500      -0.57653000
Zr      13.38225000      20.00955000      11.00277000      -1.57370800       0.00891600       1.41691500
Zr      16.78138000      15.12065000      16.44647000      -0.57569300       0.03392400       0.01097800
Zr      14.60117000       5.37542000      14.85681000      -0.88992400      -0.48057500       0.08212300
Zr      17.96325000       2.81539000      18.57169000      -0.53014100      -0.32302800      -0.07068300
Zr      13.18328000      21.85213000      14.16487000       0.40113800       0.29409200      -0.65266900
Zr      14.05980000      15.61994000      14.32252000      -0.74352900       0.05326500       0.53610300
Zr      19.20118000      22.14526000      16.70933000       0.37950300       0.15982200       0.36757700
Zr      18.36462000      19.70838000      13.41497000       0.71184600      -0.45420500      -0.04954700
O       12.01280000       0.34759000      15.82499000       0.38605300      -1.43025800      -1.81675500
O       11.99770000       1.65620000      10.79431000       0.29532100      -0.52734900      -0.18348600
O       15.19515000      16.14039000      15.82984000       0.73722700      -0.35965200       0.43287800
O       18.24569000      21.48412000      14.87599000       0.52096700       0.66558800      -0.57532200
O       17.10566000      13.70009000      15.02963000       0.09419800       0.71437000       0.39029800
O       11.77540000      20.37018000      14.48546000       0.19376500       0.09840200       0.22977300
O       15.35224000       3.45492000      14.10393000      -0.00592100       0.38347300      -0.12957100
O       17.12154000      21.94418000      17.22187000       0.31714600       0.45594000       1.35390400
O       16.35752000      20.01425000      13.76540000       0.17912800      -0.10345100       0.05669800
O       11.61774000       0.06311000      18.34216000       0.08086500       0.01814000      -0.71906800
O       12.46867000      21.75800000      12.21057000      -0.14784800       0.28004100      -0.55750800
O       17.53387000       7.27433000      16.14117000      -0.26535100      -0.19229100       0.36699600
O       16.69317000      19.43106000      16.52240000      -0.10898400      -0.27319100       0.13716800
O       14.89662000      18.78233000      10.72952000       0.16467200       0.33099200      -0.29026700
O       16.17965000       1.99182000      17.99013000       0.58273400      -0.10465900       0.37860200
O       12.70621000       1.29548000      13.54598000       0.55145100       0.39038000       1.11258400
O        9.88762000      18.81255000      13.77955000      -0.95152400       0.04921800      -0.02905000
O       19.06146000       1.23749000      17.83772000       0.01385900       0.59174200       0.36150100
O       18.11570000       1.50805000      12.88237000      -1.15658900       0.57956100      -0.29087400
O       17.98086000      16.69394000      17.08143000      -0.09026200      -0.69442500       0.03779000
O       17.64432000      18.39150000      12.18714000       0.13256700      -0.24170700      -0.29140400
O        9.45669000      21.37109000      16.01813000      -1.47501600      -0.78450000       0.48875800
O       12.68877000       4.68341000      15.02146000       1.14963500       0.37048200      -0.01728400
O       17.49656000       1.49208000      20.12571000       0.17994100       0.57612400      -0.26915700
O       14.29339000      21.45100000      15.97325000       0.27459100       0.36735100      -0.23612600
O       11.75938000      18.85688000      11.42013000       0.60248600       0.13961800       0.17331900
O       14.22588000      13.60221000      14.73105000      -0.09173000      -0.06166400      -0.38488000
O       19.10880000      18.67532000      14.95832000      -0.06655600       0.01058900      -0.19975700
O       10.50076000       2.24077000      16.36019000      -0.08287200       0.69301100      -0.67986200
O       15.27590000       7.08453000      14.06156000       0.24178200       0.50215300       0.42195100
O       17.40821000       4.76322000      18.82095000       0.13484200       0.11240200       0.54977700
O       16.28723000       1.05236000      15.10211000       0.15948000      -0.20991700      -0.54899500
O       13.95396000      21.73810000       9.99384000       0.18079800      -0.89543800      -0.27517600
O       15.08876000      16.57338000      12.99638000       0.39281600       0.26838500      -0.45936200
O       19.43845000      21.12982000      12.48063000       0.21529700      -0.09689600       0.11327000
O       10.81895000       2.86891000      13.38896000      -0.55901200       0.17181100       0.37224200
O       17.58152000       3.66754000      16.49148000       0.22845300       0.08130300       0.49279000
O       14.88069000       0.04336000      13.05330000       0.47291800       0.42312400      -0.56937100
O       14.59854000      22.42341000      18.98772000       0.01902700      -0.14515400       0.23445600
O       12.36135000      16.75628000      14.26854000       0.68545300      -0.49716200      -0.14876900
O       20.31658000       0.49535000      15.24275000       0.32270500      -0.18230900       0.31245100
O        9.61411000      22.27413000      12.99886000       0.71617600      -0.13452800       0.28964500
O       15.01612000       6.53180000      16.60700000       0.25484200       0.53199500       0.24764500
O       15.21561000       2.14936000      11.28122000       0.35532300      -0.49813300       0.53325100
O       13.85947000       2.12076000      16.63641000      -0.25314100      -0.09383900      -0.32393100
O       13.73875000      19.49450000      13.06203000       0.79065200       0.29705700      -0.40460300
O       19.46839000      20.32045000      17.45660000       0.02296700      -0.17786500       0.05308500
Zr      15.63150000      12.48135000      15.58639000      -0.16298000      -0.66091000       0.02291100
O       15.71463000      10.32586000      15.62425000       0.08903100      -0.54962600       0.03229900
O       15.81916000      13.48140000      17.27509000       0.38102700       0.73110000      -0.23007100
