74
Lattice="30.0 0.0 0.0 0.0 22.52911 0.0 0.0 0.0 30.0" Properties=species:S:1:pos:R:3:forces:R:3 energy=-673.4754419 pbc="T T T"
Zr      15.78794000       2.69768000      16.04495000      -0.46249400      -0.44540200       0.52628000
Zr      13.78046000       0.74665000      11.12213000      -0.29632700       0.08134600       0.76472400
Zr      13.41801000       0.27383000      17.39611000      -0.78047500       0.67625100       0.15275900
Zr      11.78874000      18.47914000      13.43328000       1.17207100       0.04150000      -1.32022200
Zr      19.36001000       0.23422000      13.57022000       0.01310800      -0.50793100      -0.00224300
Zr      18.43862000      18.63812000      16.78042000       0.44703800      -0.26576400      -0.24066300
Zr      11.98110000       2.85208000      14.96539000      -0.98392000      -1.64305500       0.97351000
Zr       9.84481000      20.72849000      14.25289000      -0.54510800      -0.11620900      -1.77821700
Zr      16.88063000       5.53618000      17.08308000      -0.00529000       0.14986100      -0.59869100
Zr      16.07456000       1.78446000      13.04923000      -0.08770300      -0.50651100      -0.16664800
Zr      16.48937000       0.25913000      18.99134000       0.35619300       0.06309400      -0.39663000
Zr      15.68634000      18.42350000      12.46799000      -0.99229000      -0.63880800       0.84672500
Zr      10.28585000       0.34691000      16.86689000       2.69960300       2.79738900       1.78341400
Zr      11.04273000       1.15426000      12.41944000      -0.76273200       0.29065600      -0.29329600
Zr      15.88291000       8.19773000      15.63473000      -0.29812100       0.18716400      -0.87170300
Zr      16.31940000      21.10917000      15.56822000      -1.98391500       0.36213700      -0.46703200
Zr      13.38276000      20.01125000      11.00339000      -1.61363900       0.11004100       1.41444600
Zr      16.77914000      15.11854000      16.44679000      -0.40057000       0.14276600       0.06268200
Zr      14.60407000       5.37535000      14.85192000      -0.79448900      -0.57366900       0.18238400
Zr      17.95491000       2.81410000      18.57176000      -0.27256600      -0.34672800       0.08447700
Zr      13.18382000      21.84520000      14.15630000       0.54199300       0.32180800      -0.45716900
Zr      14.06001000      15.62009000      14.33136000      -0.81288200       0.03064800       0.47399300
Zr      19.19604000      22.14845000      16.71149000       0.43414800       0.17189200       0.41515100
Zr      18.36264000      19.71563000      13.41556000       0.80965700      -0.55002800       0.02009200
O       12.00799000       0.35697000      15.82464000       0.47420900      -1.52670500      -1.89086400
O       12.00068000       1.65881000      10.78805000       0.06558600      -0.58607700       0.07633600
O       15.19889000      16.14419000      15.83052000       0.67578500      -0.34166500       0.44875600
O       18.23786000      21.49318000      14.88074000       0.62941500       0.66667100      -0.68075000
O       17.10809000      13.70003000      15.02922000      -0.03416500       0.60651600       0.43532600
O       11.77826000      20.36494000      14.50134000       0.00190300       0.10168600       0.12251800
O       15.33988000       3.44683000      14.10415000       0.09413500       0.39423600      -0.14747100
O       17.11515000      21.94533000      17.22410000       0.36888400       0.45312600       1.31604700
O       16.36774000      20.01672000      13.77068000      -0.01039700      -0.18306600      -0.04340900
O       11.62550000       0.07432000      18.33475000      -0.08062400      -0.06632000      -0.53232700
O       12.46983000      21.75675000      12.20922000      -0.22200900       0.23541400      -0.59365600
O       17.53290000       7.27127000      16.12764000      -0.18498500      -0.18816700       0.40083400
O       16.69982000      19.43682000      16.52490000      -0.23452900      -0.25326900       0.11444200
O       14.89746000      18.78941000      10.74595000       0.18973600       0.25782200      -0.59005400
O       16.18986000       1.98592000      18.00634000       0.35329300       0.01125600       0.05624700
O       12.71988000       1.28974000      13.54381000       0.22698800       0.48854100       1.02023500
O        9.88535000      18.80171000      13.77423000      -0.92263500       0.26276900       0.04564800
O       19.07274000       1.24293000      17.83915000      -0.05230500       0.55851200       0.35529200
O       18.11170000       1.50422000      12.87364000      -1.07581200       0.59673700      -0.26815100
O       17.97659000      16.69865000      17.08710000      -0.11818900      -0.78984900       0.01825700
O       17.64523000      18.39634000      12.18476000       0.13536500      -0.26420100      -0.31159400
O        9.46591000      21.37750000      16.01702000      -1.57790800      -0.92059500       0.40971200
O       12.71006000       4.66761000      15.01793000       0.93970500       0.38730200       0.02196700
O       17.49813000       1.49127000      20.13293000       0.16725500       0.50154600      -0.32863100
O       14.28936000      21.45433000      15.97703000       0.28126800       0.35173600      -0.30747200
O       11.76039000      18.86036000      11.41911000       0.61707200       0.14117000       0.17304800
O       14.23195000      13.59744000      14.72017000      -0.10747100      -0.07463300      -0.31861400
O       19.10594000      18.67847000      14.95975000      -0.05563400       0.01829700      -0.31460600
O       10.53424000       2.23412000      16.36543000      -0.42316100       0.92718600      -0.59092600
O       15.27660000       7.08081000      14.06156000       0.26039800       0.63763100       0.39382900
O       17.40954000       4.75902000      18.82304000       0.09704000       0.17701500       0.44603500
O       16.29128000       1.05593000      15.09968000       0.18900200      -0.33407700      -0.60542700
O       13.95618000      21.74111000       9.98626000       0.11384600      -0.96864500      -0.21068800
O       15.08069000      16.56683000      13.00363000       0.47578400       0.36003600      -0.56737100
O       19.43785000      21.13032000      12.48414000       0.24804300      -0.01127200       0.10866200
O       10.82111000       2.89762000      13.39041000      -0.56238800      -0.23684600       0.16282300
O       17.57308000       3.66343000      16.48676000       0.37248000       0.12204800       0.54386000
O       14.88740000       0.04195000      13.03934000       0.39716700       0.37111000      -0.48262300
O       14.60251000      22.42246000      18.98037000      -0.08723900      -0.19154500       0.32025900
O       12.35828000      16.75486000      14.26123000       0.68480100      -0.51079300      -0.10410300
O       20.31412000       0.50014000      15.24609000       0.28688100      -0.19077700       0.23001000
O        9.60855000      22.27033000      12.98554000       0.82002000      -0.15889100       0.41514200
O       15.02227000       6.53246000      16.60972000       0.25290000       0.54299900       0.21915500
O       15.22712000       2.14795000      11.26480000       0.22832700      -0.63857600       0.66924300
O       13.87449000       2.13312000      16.63815000      -0.39312800      -0.35471100      -0.18667900
O       13.74260000      19.49254000      13.06331000       0.73634900       0.34322200      -0.36794000
O       19.47320000      20.32257000      17.45217000      -0.01798600      -0.17639900       0.04796400
Zr      15.62629000      12.48129000      15.58978000       0.00371300      -0.57050400       0.09814400
O       15.70812000      10.32220000      15.62582000       0.10301200      -0.39970600       0.03223100
O       15.82718000      13.49406000      17.28511000       0.29413600       0.58201100      -0.37707800
