95
Lattice="10.381444 0.0 -0.053824 0.0 10.490337 0.0 -1.746774 0.0 10.614441" Properties=species:S:1:pos:R:3:forces:R:3 energy=-909.83665251 stress="-2.23295 -0.11518 0.36806 -0.11518 -1.39062 0.67553 0.36806 0.67553 -2.68307" pbc="T T T"
O        0.61434000       9.14320000      10.47430000       0.01311500      -0.00950000       0.02371600
O        4.35231000       1.71619000       7.13248000       0.00022300      -0.01342600      -0.01410400
O        6.67845000       3.89803000       5.14017000       0.04273500      -0.06043500      -0.02174000
O        8.02033000       1.34713000       0.08631000       0.00106100      -0.00748000       0.00160700
O        7.58363000       1.27545000       2.73992000      -0.00704500       0.00193100       0.00953700
O        7.11515000       3.96972000       2.48656000       0.03777700      -0.03834200      -0.02719000
O        4.78901000       0.90639000       4.47887000      -0.02941300      -0.02633700      -0.02744700
O        9.90977000       4.33878000       0.74762000       0.01706300       0.00919800       0.01421300
O        9.47308000       3.52898000       3.40123000      -0.00370800       0.00267800       0.00497400
O        5.22570000       1.71619000       1.82526000      -0.01856400       0.01304300       0.01526500
O        7.14694000       6.59230000       5.39353000      -0.62751600       0.07501800      -0.30712800
O        1.95622000       6.59230000       5.42045000       0.07343500      -0.05070900      -0.08055500
O        1.51952000       6.52062000       8.07406000       0.00070300       0.00316200      -0.00115700
O        1.05104000       9.21489000       7.82069000       0.00382900      -0.00393100       0.00045300
O       -1.27510000       6.15156000       9.81300000       0.02882900       0.01167600       0.00685100
O        3.84566000       9.58394000       6.08175000       0.00036300       0.03255700      -0.01281500
O        8.59969000       3.52898000       8.70845000       0.03223000      -0.00234700       0.00976000
O        9.03638000       4.33878000       6.05484000       0.03270800       0.03667500      -0.01084500
O        3.91562000       0.90639000       9.78609000      -0.01749900      -0.02445800      -0.00149000
O        6.24176000       3.96972000       7.79378000       0.04400300      -0.17073400       0.04305700
O        6.71025000       6.52062000       8.04714000       0.09626100       0.11559400       0.06913600
O        6.24176000       9.21489000       7.79378000      -0.00120000      -0.00329300      -0.01055400
O        3.91562000       6.15156000       9.78609000      -0.01134700       0.01667800       0.01741700
O        9.03638000       9.58394000       6.05484000      -0.00222300      -0.00729100      -0.00009500
O        8.59969000       8.77414000       8.70845000       0.01408200      -0.00026500      -0.00663200
O        4.35231000       6.96136000       7.13248000       0.03251000      -0.06252100      -0.25368000
O        6.67845000       9.14320000       5.14017000      -0.04825000      -0.07993000      -0.07432500
O        3.40897000       8.77414000       8.73536000      -0.00334200      -0.00449600       0.00362100
O        8.02033000       6.59230000       0.08631000      -0.01994500       0.00583400       0.03360500
O        7.11515000       9.21489000       2.48656000       0.05478200       0.04579500      -0.06074600
O        9.90977000       9.58394000       0.74762000       0.01811600      -0.00747800       0.00014200
O        9.47308000       8.77414000       3.40123000       0.01134900      -0.01286000       0.00637000
O        5.22570000       6.96136000       1.82526000      -0.06443000       0.01835900       0.38779800
O        5.80506000       3.89803000      10.44739000      -0.01674900       0.01262300       0.02463800
O        7.14694000       1.34713000       5.39353000      -0.00947700      -0.02337100      -0.01690700
O        6.71025000       1.27545000       8.04714000      -0.00071000      -0.03996600      -0.00349000
O        7.58363000       6.52062000       2.73992000      -0.10059000       0.08192700       0.05771700
O       -0.83841000       6.96136000       7.15939000      -0.00266300       0.00199100      -0.01458700
O        5.80506000       9.14320000      10.44739000      -0.01379500      -0.01773600      -0.00332900
O       -1.27510000       0.90639000       9.81300000       0.00492200      -0.00669300       0.00695300
O        2.39291000       1.27545000       2.76684000       0.01807300      -0.01865200       0.00251200
O        1.92442000       3.96972000       2.51347000      -0.00906000      -0.02613100      -0.08916400
O       -0.40171000       0.90639000       4.50578000      -0.01117900      -0.01161800      -0.00077100
O        1.95622000       1.34713000       5.42045000       0.01628400      -0.03234200      -0.02578800
O        0.61434000       3.89803000      10.47430000       0.00894100       0.00946700       0.00350000
O        1.05104000       3.96972000       7.82069000       0.00056700       0.01729300       0.00625900
O        1.48773000       3.89803000       5.16708000       0.08394100       0.01835200       0.01842000
O        3.84566000       4.33878000       6.08175000       0.21489500       0.49312700      -0.40062200
O        3.40897000       3.52898000       8.73536000      -0.01494900       0.00944800       0.00094600
O        0.03498000       6.96136000       1.85217000       0.03523600      -0.00072000       0.01511200
O        4.28236000       8.77414000       3.42814000       0.19625100      -0.35745900       0.14018000
O        4.71905000       4.33878000       0.77453000       0.00063400       0.01186000       0.01146000
O        4.28236000       3.52898000       3.42814000      -0.01715000       0.26765000       0.09904700
O        0.03498000       1.71619000       1.85217000       0.01350800      -0.01031200       0.00135600
O       -0.83841000       1.71619000       7.15939000       0.01531300      -0.01536600      -0.00074500
O        4.71905000       9.58394000       0.77453000      -0.02517300      -0.06337600       0.05300100
O       -0.40171000       6.15156000       4.50578000      -0.01017800       0.02409900       0.00471700
O        1.92442000       9.21489000       2.51347000       0.04336000      -0.02834500       0.00351800
O        2.39291000       6.52062000       2.76684000       0.19973300       0.01759300       0.12173200
O        2.82960000       6.59230000       0.11323000       0.02345500       0.02091100       0.02649200
O        1.48773000       9.14320000       5.16708000       0.00964500      -0.00380700      -0.02712900
O        2.82960000       1.34713000       0.11323000       0.00418200      -0.00598700       0.00587200
O        1.51952000       1.27545000       8.07406000       0.00974400      -0.00226200      -0.00166200
Zr       0.37497000       0.22822000       6.41431000      -0.00786200       0.02729300       0.00727400
Zr       2.19559000       5.01695000       9.48044000      -0.00025100      -0.02889300      -0.01619100
Zr       7.38631000      10.26212000       9.45353000      -0.00858200       0.01468800      -0.00705000
Zr       6.00238000       7.63954000       3.73379000       0.13981300      -0.06345600       0.09866600
Zr       7.82301000       8.09597000       6.79992000      -0.02844600       0.01557300       0.10478300
Zr       5.12900000       7.63954000       9.04101000       0.09215300      -0.02291700      -0.02015700
Zr       0.81166000       2.39437000       3.76070000       0.01093200       0.02715000      -0.01446500
Zr       3.50567000       2.85080000       1.51961000      -0.03572100       0.00291300      -0.04186300
Zr       3.06898000       5.01695000       4.17322000      -0.16905200      -0.13914800       0.15426900
Zr       5.56569000       5.47339000       6.38740000      -0.00702400      -0.11871300       0.22077600
Zr       8.69640000       8.09597000       1.49270000      -0.00484700       0.06163200      -0.00382200
Zr      -0.06173000       7.63954000       9.06792000      -0.02207400      -0.00572600      -0.00715800
Zr       6.43908000       5.47339000       1.08018000       0.05659400      -0.16350000       0.03093700
Zr       2.19559000      10.26212000       9.48044000       0.00544800       0.02511700      -0.02786500
Zr       0.37497000       5.47339000       6.41431000      -0.02021700      -0.03861200       0.00667400
Zr       6.43908000       0.22822000       1.08018000       0.04936200       0.03225500      -0.01880200
Zr       8.25970000       5.01695000       4.14631000      -0.11394200      -0.09457700      -0.02722100
Zr       8.69640000       2.85080000       1.49270000      -0.01629900       0.00904500      -0.00562700
Zr       6.00238000       2.39437000       3.73379000       0.10589100       0.01583200       0.03551200
Zr       0.81166000       7.63954000       3.76070000      -0.05843200       0.00382100       0.02036300
Zr       3.50567000       8.09597000       1.51961000      -0.13793000       0.05938600      -0.12929100
Zr       3.06898000      10.26212000       4.17322000      -0.08479100       0.12728000       0.08899900
Zr       1.24835000       5.47339000       1.10709000      -0.02661600      -0.06349800      -0.02111700
Zr       5.56569000       0.22822000       6.38740000       0.00225100       0.03557200       0.03636000
Zr       7.38631000       5.01695000       9.45353000      -0.03970200       0.00129800      -0.07480900
Zr       7.82301000       2.85080000       6.79992000      -0.07988400       0.04890000       0.02934300
Zr       5.12900000       2.39437000       9.04101000       0.04556300       0.04762600      -0.02528900
Zr       2.63229000       8.09597000       6.82683000       0.05962500      -0.02889300      -0.07883100
Zr      -0.06173000       2.39437000       9.06792000      -0.02083000       0.01260100      -0.01236200
Zr       2.63229000       2.85080000       6.82683000      -0.03749000       0.02125200      -0.01993300
Zr       8.25970000      10.26212000       4.14631000       0.01341600       0.02656700      -0.01642700
Zr       1.24835000       0.22822000       1.10709000      -0.02876000       0.02757100      -0.02193100
