95
Lattice="10.381444 0.0 -0.053824 0.0 10.490337 0.0 -1.746774 0.0 10.614441" Properties=species:S:1:pos:R:3:forces:R:3 energy=-909.9130848 stress="-2.18728 -0.14281 0.25977 -0.14281 -1.06703 0.61833 0.25977 0.61833 -2.57107" pbc="T T T"
O        0.61369000       9.14364000      10.47409000       0.01158000      -0.02350800       0.01442300
O        4.34946000       1.71970000       7.13095000       0.03202600       0.01385000      -0.06381500
O        6.68549000       3.88908000       5.13943000       0.02574700       0.00438100       0.01353600
O        8.02141000       1.34779000       0.08535000      -0.00828600      -0.03069600       0.00912900
O        7.58376000       1.27792000       2.74044000      -0.01137600      -0.00476500       0.01328200
O        7.12002000       3.96387000       2.48473000      -0.01966400       0.04692800       0.00562900
O        4.78813000       0.90675000       4.47649000      -0.02165800      -0.02357900      -0.01610000
O        9.90836000       4.33815000       0.74736000       0.06158500       0.05568800       0.00225900
O        9.47261000       3.52877000       3.40156000      -0.02257600       0.05827600       0.02225900
O        5.22433000       1.71886000       1.82782000      -0.01410000      -0.00064700       0.00543200
O        7.08431000       6.59976000       5.36860000      -0.10209100       0.03605600       0.03995600
O        1.95986000       6.58797000       5.41638000      -0.04568300       0.02434800      -0.00076700
O        1.51926000       6.51982000       8.07358000       0.00889400       0.02473000      -0.02350700
O        1.05118000       9.21536000       7.81993000       0.04221500      -0.04061400      -0.00523500
O       -1.27496000       6.15057000       9.81237000       0.06593200       0.03011000       0.01990900
O        3.84594000       9.58941000       6.08255000      -0.03001400      -0.00680700       0.02229000
O        8.60198000       3.53009000       8.70912000       0.02090100       0.02500100       0.00484600
O        9.03662000       4.34091000       6.05439000      -0.02182200       0.06061000      -0.01451800
O        3.91629000       0.90664000       9.78421000      -0.03576500      -0.05631400       0.01530600
O        6.24664000       3.95090000       7.80102000      -0.01968800       0.05752900      -0.02261700
O        6.72301000       6.53046000       8.05610000       0.02795300       0.00685800      -0.02027500
O        6.24177000       9.21487000       7.79368000      -0.01261700      -0.02969200      -0.02230700
O        3.91555000       6.15311000       9.78706000      -0.00017800       0.02913800       0.02414800
O        9.03576000       9.58307000       6.05586000      -0.03354900      -0.04081800       0.00720800
O        8.59969000       8.77561000       8.70795000       0.02387600      -0.02388200      -0.03695000
O        4.35656000       6.95827000       7.11059000       0.01856300       0.08307300       0.02865900
O        6.67806000       9.14181000       5.13756000       0.02845700       0.04832000       0.02082900
O        3.41086000       8.77175000       8.73446000       0.01686900      -0.05196000      -0.04222000
O        8.01883000       6.59132000       0.08871000      -0.03754600       0.01760500       0.05439800
O        7.12416000       9.22285000       2.47865000       0.02260500       0.00643400      -0.01388900
O        9.91170000       9.58433000       0.74607000      -0.00868700      -0.03650700       0.01950700
O        9.47290000       8.77457000       3.40183000       0.05612400      -0.05051100      -0.00044400
O        5.22206000       6.95311000       1.85851000      -0.09881100      -0.08983400       0.01985500
O        5.80379000       3.89898000      10.44875000      -0.01816100       0.01646800       0.00752700
O        7.14602000       1.34585000       5.39306000      -0.01898000      -0.03759700      -0.00214200
O        6.71016000       1.27194000       8.04681000      -0.01830900      -0.05189300      -0.01368500
O        7.57986000       6.52294000       2.74386000       0.05892300      -0.02290100      -0.00671900
O       -0.84034000       6.96116000       7.15751000      -0.05102000       0.01764900      -0.02118200
O        5.80488000       9.14182000      10.44498000      -0.01102400      -0.03083600      -0.01369000
O       -1.27513000       0.90634000       9.81283000      -0.00409600      -0.01393200       0.01814700
O        2.39340000       1.27538000       2.76706000       0.02386600      -0.02031000      -0.00809700
O        1.92001000       3.96361000       2.50381000      -0.03688900       0.01257900       0.00054200
O       -0.40086000       0.90731000       4.50531000      -0.01983300      -0.02617400      -0.00411700
O        1.95863000       1.34606000       5.41884000       0.02005000      -0.00661200      -0.00427600
O        0.61531000       3.89816000      10.47281000       0.02431200       0.03270300       0.00747800
O        1.05239000       3.96963000       7.82042000       0.02047900       0.05015100      -0.01800200
O        1.49349000       3.89467000       5.17350000      -0.00130000      -0.00183800       0.01354300
O        3.85726000       4.37579000       6.05041000      -0.10370000      -0.05732100       0.05373900
O        3.40922000       3.52859000       8.73122000      -0.01300100       0.08627300      -0.03903600
O        0.03878000       6.96105000       1.85312000       0.04846200       0.00538600       0.03562800
O        4.28874000       8.74796000       3.44751000      -0.15885800      -0.00056600       0.07476500
O        4.71889000       4.33854000       0.77437000       0.00523200       0.01954800      -0.00914100
O        4.28733000       3.55008000       3.43448000       0.04513400       0.04013700      -0.06181400
O        0.03487000       1.71657000       1.85293000       0.02846200      -0.03542400      -0.01339400
O       -0.83881000       1.71671000       7.15976000       0.00236300      -0.01990300      -0.00151400
O        4.71943000       9.58165000       0.77766000      -0.02884700      -0.06836300       0.04815800
O       -0.40678000       6.15093000       4.50765000      -0.01695300       0.04902300      -0.01332300
O        1.92844000       9.21526000       2.51342000       0.05011000      -0.03401300       0.00102300
O        2.40918000       6.52243000       2.77779000      -0.01470500       0.05029000      -0.04092000
O        2.83062000       6.59258000       0.11328000       0.01592400       0.02089400       0.03920200
O        1.48803000       9.14385000       5.16576000       0.01799600      -0.05747100      -0.02111100
O        2.82933000       1.34725000       0.11279000       0.00886700      -0.00577800       0.01604700
O        1.52168000       1.27873000       8.07144000       0.02163200      -0.00907800       0.00096400
Zr       0.37294000       0.22667000       6.41532000       0.03045100       0.10140500      -0.00866900
Zr       2.19538000       5.01972000       9.48194000      -0.00750200      -0.08735500      -0.04002300
Zr       7.38568000      10.26204000       9.45412000       0.00842200       0.04709400      -0.02098300
Zr       6.00671000       7.62935000       3.74245000      -0.09206200      -0.06270800       0.08003700
Zr       7.81840000       8.09655000       6.80250000      -0.01425000       0.02664600       0.00664200
Zr       5.13245000       7.63823000       9.04014000       0.02752900       0.02604300       0.02030200
Zr       0.81247000       2.39596000       3.75651000      -0.02076500      -0.06039500       0.05475900
Zr       3.50456000       2.85302000       1.52014000       0.00627000      -0.02668800       0.00709200
Zr       3.05837000       5.01510000       4.18025000       0.09976800       0.02589700      -0.06556800
Zr       5.56282000       5.46904000       6.39860000      -0.00870300      -0.07852300      -0.06398100
Zr       8.69450000       8.10002000       1.49468000       0.01842500       0.01046000      -0.04292500
Zr      -0.06009000       7.63900000       9.06789000      -0.04757100       0.02680700      -0.03299300
Zr       6.43557000       5.47041000       1.08842000       0.03489800      -0.04394400      -0.00945700
Zr       2.19749000      10.26039000       9.47989000      -0.00502800       0.07060300      -0.06506400
Zr       0.37402000       5.47535000       6.41286000      -0.05973100      -0.07993500       0.03698800
Zr       6.43852000       0.22766000       1.08058000       0.03782700       0.10074600      -0.01116900
Zr       8.24878000       5.01475000       4.14319000       0.04146800      -0.12301000       0.00057800
Zr       8.69776000       2.85033000       1.49217000      -0.01995500      -0.00664600      -0.03514900
Zr       6.00449000       2.39489000       3.73572000       0.01004700      -0.00424400      -0.01065000
Zr       0.81231000       7.63673000       3.76061000      -0.04133200       0.00519000       0.01395200
Zr       3.49995000       8.09597000       1.51985000       0.07239600      -0.02215900       0.09441200
Zr       3.06988000      10.26143000       4.17569000       0.01579900       0.03265000      -0.00945700
Zr       1.24975000       5.47195000       1.10971000      -0.06027100      -0.06358200      -0.05291800
Zr       5.56542000       0.22667000       6.38553000       0.03291300       0.08514700       0.02969800
Zr       7.38640000       5.02003000       9.45130000       0.00483600      -0.08950700       0.07146600
Zr       7.81937000       2.85229000       6.80034000       0.05396000      -0.05527800       0.01437900
Zr       5.13103000       2.39514000       9.04070000       0.04150200       0.01378600       0.01293000
Zr       2.63914000       8.09208000       6.81697000      -0.01420900       0.04491300       0.01220800
Zr      -0.06301000       2.39433000       9.06750000       0.01457200       0.00154200      -0.04072800
Zr       2.63465000       2.85850000       6.82280000       0.02328500       0.00509700      -0.01787000
Zr       8.25846000      10.26000000       4.14496000       0.02043300       0.09403900       0.00021100
Zr       1.24787000       0.22806000       1.10685000       0.00122800       0.06601700      -0.03286300
