95
Lattice="10.381444 0.0 -0.053824 0.0 10.490337 0.0 -1.746774 0.0 10.614441" Properties=species:S:1:pos:R:3:forces:R:3 energy=-909.9335196 stress="-2.06153 -0.07906 0.36134 -0.07906 -1.0012 0.58833 0.36134 0.58833 -2.48327" pbc="T T T"
O        0.61555000       9.14337000      10.47223000       0.00594100       0.00074500      -0.00734400
O        4.35566000       1.72804000       7.12261000       0.01629100       0.02192300      -0.01561300
O        6.68944000       3.88489000       5.14238000      -0.02330600      -0.00062200      -0.01754300
O        8.02150000       1.34672000       0.08501000      -0.00786400      -0.00287100      -0.00050900
O        7.58317000       1.28295000       2.74088000       0.00426300      -0.00908800       0.00870800
O        7.11905000       3.96544000       2.48390000       0.00617200      -0.01508500       0.00691800
O        4.78729000       0.90628000       4.47216000       0.01005200       0.00374500      -0.00419900
O        9.91058000       4.34035000       0.74747000      -0.00284500      -0.00170300       0.00661900
O        9.47345000       3.53068000       3.40168000      -0.00277700      -0.00129400       0.00187100
O        5.22243000       1.71894000       1.82892000       0.00244500      -0.01360800      -0.00592400
O        7.05116000       6.60535000       5.37067000       0.04473800      -0.00884100       0.03005700
O        1.95230000       6.58737000       5.41535000       0.00265200       0.00350500      -0.00445300
O        1.51755000       6.52236000       8.07061000      -0.00502900       0.00795200       0.00830600
O        1.05621000       9.21523000       7.81681000       0.00304800      -0.00676700       0.00056100
O       -1.26918000       6.15185000       9.81401000      -0.00722000       0.00386400      -0.00078000
O        3.84299000       9.59536000       6.08756000       0.00141000       0.03191300       0.01599100
O        8.60732000       3.53287000       8.70907000      -0.01336000       0.00843500      -0.00892900
O        9.02961000       4.34651000       6.05588000      -0.00573000      -0.00568200      -0.00037900
O        3.91467000       0.90331000       9.78275000       0.01231600       0.01131200      -0.00639500
O        6.24648000       3.95198000       7.80157000       0.00687000      -0.01670300       0.01424700
O        6.73064000       6.52833000       8.05890000      -0.02549400       0.00313400       0.01747500
O        6.24000000       9.21305000       7.79131000       0.00005400      -0.00168500      -0.00705900
O        3.91446000       6.15780000       9.79236000       0.00015100       0.02887500       0.00747800
O        9.03769000       9.58349000       6.05686000      -0.03617600      -0.03167400      -0.01740700
O        8.60128000       8.77684000       8.70290000      -0.00986900       0.01439800      -0.01088100
O        4.36585000       6.96761000       7.10730000      -0.00222400       0.00468100       0.01033100
O        6.68071000       9.14939000       5.13679000      -0.00658000      -0.00276900      -0.00457600
O        3.41120000       8.76824000       8.73049000       0.01753100      -0.01257500       0.01613800
O        8.01493000       6.59135000       0.09691000       0.01094900      -0.00260900      -0.00889000
O        7.12972000       9.22697000       2.47490000      -0.01196700      -0.00729000       0.01275200
O        9.91330000       9.58203000       0.74535000       0.00898600      -0.01041200      -0.00688800
O        9.47751000       8.77256000       3.40276000      -0.01445200       0.01885700       0.00035000
O        5.20705000       6.93043000       1.87903000      -0.01453600      -0.04518300       0.03182000
O        5.80256000       3.89805000      10.45068000       0.00338500      -0.00038400      -0.01166500
O        7.14602000       1.34312000       5.39355000       0.00574600       0.00148200      -0.00858900
O        6.70752000       1.26645000       8.04581000       0.00288800       0.01372500      -0.00185600
O        7.58387000       6.52004000       2.74797000      -0.02390800       0.01508300       0.01737900
O       -0.84805000       6.96121000       7.15372000      -0.00984500       0.00543800       0.00583600
O        5.80556000       9.14034000      10.44080000       0.01001000       0.00038900       0.00235800
O       -1.27427000       0.90800000       9.81272000      -0.00584900      -0.00715500       0.00263100
O        2.39579000       1.27524000       2.76644000       0.00412800       0.01349100       0.00070900
O        1.91512000       3.96224000       2.50346000       0.02714700       0.01339700      -0.01215400
O       -0.40104000       0.90655000       4.50656000      -0.00615200       0.00327300      -0.01574400
O        1.96008000       1.34493000       5.41762000       0.01818000       0.00196000      -0.01493000
O        0.61855000       3.89910000      10.47018000       0.00502800       0.00890700       0.01006400
O        1.05380000       3.97351000       7.81871000       0.00823000      -0.00702700      -0.00665300
O        1.49303000       3.89214000       5.17248000      -0.00625700       0.01296800      -0.02955700
O        3.84475000       4.37663000       6.05131000       0.00871800       0.02034700      -0.01205900
O        3.41472000       3.53906000       8.72217000       0.01795800       0.01739100      -0.01135800
O        0.04561000       6.96133000       1.85608000      -0.02226000       0.01035100      -0.00311100
O        4.27041000       8.73287000       3.46986000      -0.01724000      -0.02708000       0.01954800
O        4.71865000       4.33706000       0.77075000       0.01679900      -0.01121500      -0.03494700
O        4.29755000       3.56412000       3.42379000       0.02200600       0.01087700      -0.01181900
O        0.03513000       1.71451000       1.85291000       0.00937900      -0.01552700       0.00168900
O       -0.83735000       1.71412000       7.15970000      -0.01046500       0.02186600       0.00018900
O        4.72090000       9.57463000       0.78573000       0.02170000      -0.01093900       0.00767600
O       -0.41515000       6.15537000       4.50932000      -0.01947200       0.00618000       0.00242900
O        1.93467000       9.21557000       2.51173000      -0.01196200       0.01069000      -0.00398600
O        2.41037000       6.52580000       2.77630000      -0.03043000      -0.01411100       0.00272500
O        2.83326000       6.59438000       0.11792000       0.01117700       0.00076800      -0.01648800
O        1.49007000       9.14023000       5.16416000      -0.00112100       0.00790600      -0.00253000
O        2.83128000       1.34783000       0.11169000       0.01267600      -0.00206700       0.00506700
O        1.52449000       1.27915000       8.06976000       0.02242300      -0.00901600       0.00925700
Zr       0.37729000       0.22865000       6.41279000      -0.01793300      -0.00473900       0.02577500
Zr       2.19577000       5.01920000       9.47983000       0.00170500       0.00947400      -0.01399200
Zr       7.38703000      10.26099000       9.45252000       0.02492700       0.01281400       0.01825200
Zr       5.99345000       7.61925000       3.75487000      -0.01683700      -0.02820000      -0.00868200
Zr       7.81169000       8.09913000       6.80048000       0.04000500      -0.00983500      -0.00897200
Zr       5.13567000       7.63860000       9.03986000      -0.00090100      -0.00028100       0.01619100
Zr       0.81454000       2.39220000       3.76055000      -0.00179200      -0.00134800      -0.02772400
Zr       3.50378000       2.85429000       1.52022000       0.00121600       0.00375100      -0.01424400
Zr       3.06484000       5.02252000       4.17102000      -0.02819700      -0.02008200       0.02942200
Zr       5.55643000       5.46137000       6.39813000      -0.00055800       0.00247200       0.01347800
Zr       8.69705000       8.10019000       1.49525000      -0.00120700      -0.00780200      -0.00158200
Zr      -0.06088000       7.64219000       9.06540000      -0.00534200      -0.00692400      -0.02495500
Zr       6.43727000       5.46836000       1.08975000      -0.00955300       0.00787700       0.01933300
Zr       2.19878000      10.25801000       9.47654000      -0.00752500       0.01311100      -0.00550100
Zr       0.36837000       5.47423000       6.41397000       0.00187300       0.00941500       0.01759900
Zr       6.43877000       0.23167000       1.08110000       0.00419500      -0.00702500      -0.01710400
Zr       8.25358000       5.00583000       4.13976000      -0.02379600       0.01482900       0.02375300
Zr       8.69713000       2.84892000       1.49117000       0.03595400      -0.00568900      -0.02387200
Zr       6.00522000       2.39338000       3.73506000      -0.01337000       0.02124400      -0.00417500
Zr       0.80841000       7.63549000       3.76303000       0.03468100      -0.00107300      -0.00020300
Zr       3.50288000       8.09125000       1.52845000      -0.01121200      -0.00833300       0.00843800
Zr       3.06866000      10.26281000       4.17640000      -0.00868200      -0.01418900      -0.00372800
Zr       1.25105000       5.47220000       1.10629000      -0.00982500      -0.01223200       0.00511200
Zr       5.56736000       0.23025000       6.38619000      -0.01617200      -0.00807000      -0.01149200
Zr       7.38774000       5.01758000       9.45556000       0.03917100      -0.01397500       0.00065500
Zr       7.82225000       2.84806000       6.80160000       0.02829800       0.00682300       0.01827400
Zr       5.13162000       2.39702000       9.03820000      -0.01123700      -0.00672800       0.01289400
Zr       2.64037000       8.09364000       6.81475000      -0.01115100      -0.00722200      -0.00427300
Zr      -0.05810000       2.39518000       9.06629000      -0.00115600      -0.02185400      -0.02459200
Zr       2.63732000       2.86228000       6.81702000      -0.05590900      -0.01179700       0.02173400
Zr       8.25827000      10.26015000       4.14339000       0.03099000       0.01787600       0.01727400
Zr       1.25209000       0.22818000       1.10407000      -0.01771900       0.01886400      -0.00505800
