95
Lattice="10.381444 0.0 -0.053824 0.0 10.490337 0.0 -1.746774 0.0 10.614441" Properties=species:S:1:pos:R:3:forces:R:3 energy=-909.93591095 stress="-1.90608 -0.0958 0.4164 -0.0958 -1.0726 0.63834 0.4164 0.63834 -2.42712" pbc="T T T"
O        0.61658000       9.14353000      10.47051000       0.00605300       0.00381800       0.00504300
O        4.35880000       1.73240000       7.11982000      -0.02372000       0.02365800      -0.01204400
O        6.68762000       3.88450000       5.14196000      -0.00656800       0.00694900      -0.00714200
O        8.02099000       1.34669000       0.08471000       0.00862800      -0.00697800       0.00549800
O        7.58360000       1.28391000       2.74144000       0.00646200      -0.01511500      -0.00535000
O        7.11899000       3.96487000       2.48390000       0.02323400      -0.00988800       0.00019200
O        4.78755000       0.90629000       4.47070000      -0.00464900      -0.00582500      -0.00810000
O        9.91050000       4.34051000       0.74782000       0.02149700      -0.00399700       0.01305100
O        9.47465000       3.52971000       3.40141000      -0.01872500       0.01712400       0.00058500
O        5.22204000       1.71752000       1.82823000      -0.00720600      -0.00065000      -0.00853300
O        7.05009000       6.60530000       5.37507000       0.03986400      -0.01995300      -0.00364500
O        1.95033000       6.58718000       5.41479000       0.00607800       0.00971200       0.00473400
O        1.51605000       6.52392000       8.07077000       0.00767700      -0.00889000      -0.01380700
O        1.05728000       9.21534000       7.81598000      -0.00402600      -0.00285300      -0.00441400
O       -1.26843000       6.15274000       9.81404000      -0.00008500      -0.00293400       0.00402900
O        3.84179000       9.59901000       6.09019000      -0.02338400       0.01430600       0.00390800
O        8.60762000       3.53431000       8.70846000       0.03753100      -0.03510300      -0.00696600
O        9.02779000       4.34730000       6.05698000       0.01661800      -0.00139500      -0.00615000
O        3.91505000       0.90371000       9.78131000      -0.00929700      -0.00562500       0.00521800
O        6.24692000       3.95216000       7.80259000       0.01974900      -0.02906500       0.00383500
O        6.72957000       6.52673000       8.06098000      -0.01297900       0.00838800       0.01324400
O        6.23957000       9.21245000       7.79061000       0.01336100       0.00864400      -0.01127100
O        3.91383000       6.16118000       9.79415000      -0.01667600       0.00487100       0.02010000
O        9.03716000       9.58234000       6.05589000      -0.00034100      -0.00906300      -0.01003300
O        8.60156000       8.77799000       8.70100000       0.00324200       0.01630300      -0.00550700
O        4.36808000       6.97008000       7.10816000      -0.03543400      -0.00564100      -0.00563600
O        6.68022000       9.15019000       5.13542000      -0.00609000      -0.01163700       0.00363500
O        3.41170000       8.76750000       8.73128000      -0.00822800       0.00227100       0.00969300
O        8.01552000       6.59106000       0.09767000      -0.00288300      -0.00809000       0.01674600
O        7.12950000       9.22637000       2.47565000      -0.01663500       0.00292300      -0.00590200
O        9.91481000       9.58089000       0.74432000       0.01383600      -0.00027000      -0.00123100
O        9.47745000       8.77386000       3.40294000       0.01590700      -0.00324300       0.00022500
O        5.20226000       6.92189000       1.88657000      -0.02840200      -0.02081700       0.00607500
O        5.80303000       3.89751000      10.45022000       0.00865400       0.00095700      -0.00309300
O        7.14721000       1.34316000       5.39335000       0.00390600       0.00775300      -0.00016200
O        6.70719000       1.26671000       8.04587000       0.01618700       0.00961400       0.00522500
O        7.58196000       6.52105000       2.75092000      -0.01121000      -0.00391200       0.00002300
O       -0.84998000       6.96118000       7.15377000       0.02042200      -0.01140300       0.00233200
O        5.80693000       9.14028000      10.43979000       0.01004400       0.00849800       0.01966700
O       -1.27403000       0.90831000       9.81249000       0.01448500       0.01679100       0.00105400
O        2.39636000       1.27642000       2.76659000       0.00611600       0.00871900      -0.01205200
O        1.91684000       3.96365000       2.50350000       0.01206400      -0.00680000      -0.02779700
O       -0.40084000       0.90695000       4.50631000       0.01209900       0.00417300       0.00018800
O        1.96110000       1.34448000       5.41620000       0.00039900       0.00593400       0.00722200
O        0.61958000       3.89972000      10.46975000      -0.01064700      -0.00453500      -0.00014500
O        1.05411000       3.97374000       7.81809000      -0.00144800      -0.01240700      -0.00711500
O        1.49191000       3.89319000       5.16839000      -0.00983800      -0.00011800       0.01381500
O        3.84263000       4.37743000       6.05188000      -0.01755100       0.00400700      -0.02023500
O        3.41802000       3.54319000       8.71945000      -0.01462900       0.01007500      -0.01337200
O        0.04508000       6.96229000       1.85606000      -0.00496300      -0.01171400       0.00483200
O        4.26613000       8.72624000       3.47608000      -0.03643200      -0.00125800      -0.00648500
O        4.71955000       4.33546000       0.76666000       0.02422600      -0.01296500      -0.02657100
O        4.30047000       3.56866000       3.41983000       0.00756000       0.00091100      -0.00102500
O        0.03592000       1.71278000       1.85332000       0.00052100      -0.00239500      -0.01103400
O       -0.83668000       1.71444000       7.15948000       0.00862500       0.01225400       0.01452100
O        4.72299000       9.57215000       0.78806000       0.00147900      -0.01689000      -0.00319700
O       -0.41824000       6.15710000       4.51046000       0.00436200       0.01010900       0.00329300
O        1.93441000       9.21690000       2.51072000      -0.00417600       0.00019700       0.00013700
O        2.40742000       6.52473000       2.77586000      -0.02342100      -0.00239300       0.00438700
O        2.83469000       6.59490000       0.11731000       0.00025400      -0.00500500      -0.00127200
O        1.49025000       9.14066000       5.16418000      -0.00690900      -0.00105000      -0.00254200
O        2.83286000       1.34769000       0.11117000      -0.00281700       0.00226800      -0.00346000
O        1.52643000       1.27793000       8.07015000       0.00529600       0.01303900      -0.00459700
Zr       0.37637000       0.22774000       6.41365000      -0.00573900      -0.01132200      -0.01524400
Zr       2.19700000       5.02039000       9.47915000       0.01408100       0.00942000      -0.00312100
Zr       7.38872000      10.26199000       9.45373000      -0.02825600      -0.02857300      -0.02306800
Zr       5.98954000       7.61635000       3.75622000       0.01759400      -0.01683400       0.04179900
Zr       7.81235000       8.09922000       6.79836000      -0.03428400      -0.00593800       0.02259500
Zr       5.13627000       7.63814000       9.04028000       0.03327000       0.01958900       0.01950100
Zr       0.81538000       2.39221000       3.75866000      -0.01307500      -0.00610900       0.00432800
Zr       3.50373000       2.85532000       1.51871000       0.03550100      -0.00297700       0.00118100
Zr       3.06368000       5.02183000       4.17097000       0.00818400      -0.01942900       0.02754900
Zr       5.55443000       5.45956000       6.40030000       0.02680900       0.02037300       0.00968700
Zr       8.69727000       8.09941000       1.49669000      -0.01954000       0.00910200      -0.01633200
Zr      -0.06126000       7.64226000       9.06327000      -0.01497100       0.01325300       0.01631000
Zr       6.43734000       5.46768000       1.09132000       0.01241600       0.00363800      -0.00736800
Zr       2.19956000      10.25769000       9.47695000       0.00735600      -0.02656600      -0.00197400
Zr       0.36734000       5.47532000       6.41454000      -0.01305300       0.00241100      -0.00203500
Zr       6.43900000       0.23133000       1.08031000       0.02397700      -0.01436800       0.01847700
Zr       8.25327000       5.00559000       4.14018000      -0.03883800       0.00454100       0.02487900
Zr       8.69923000       2.84741000       1.49013000      -0.02035100       0.01733500      -0.00967600
Zr       6.00530000       2.39412000       3.73474000      -0.00350900       0.00451800      -0.00904200
Zr       0.80952000       7.63503000       3.76377000      -0.00983500       0.01337700      -0.01925500
Zr       3.50211000       8.08997000       1.52943000      -0.00277800      -0.00020000       0.00183100
Zr       3.06722000      10.26337000       4.17689000       0.02305800      -0.00713000      -0.00704000
Zr       1.25199000       5.47191000       1.10662000      -0.02648100       0.01392500      -0.01100400
Zr       5.56673000       0.23017000       6.38497000       0.01559000      -0.00225000       0.00943800
Zr       7.39045000       5.01622000       9.45504000      -0.02557500       0.02376900       0.00889200
Zr       7.82348000       2.84779000       6.80304000      -0.04013500       0.00853500      -0.01454700
Zr       5.13028000       2.39656000       9.03775000       0.02470900       0.01939600      -0.00219800
Zr       2.64079000       8.09309000       6.81398000       0.01882300       0.01297300       0.01630400
Zr      -0.05687000       2.39354000       9.06518000      -0.00810400       0.01528500       0.00219300
Zr       2.63333000       2.86124000       6.81739000       0.02723100       0.00419300      -0.00388500
Zr       8.25937000      10.26035000       4.14402000      -0.01663500       0.01976300      -0.01309800
Zr       1.25182000       0.22946000       1.10333000       0.00549700      -0.02809200       0.00130800
