95
Lattice="10.381444 0.0 -0.053824 0.0 10.490337 0.0 -1.746774 0.0 10.614441" Properties=species:S:1:pos:R:3:forces:R:3 energy=-909.93748145 stress="-1.9331 -0.13884 0.41841 -0.13884 -1.16739 0.65134 0.41841 0.65134 -2.38775" pbc="T T T"
O        0.61747000       9.14382000      10.46986000      -0.00292800      -0.00600300       0.00730800
O        4.35929000       1.73602000       7.11764000       0.01047200      -0.00816700      -0.00257200
O        6.68618000       3.88464000       5.14122000      -0.00928700       0.01192700       0.01298300
O        8.02112000       1.34628000       0.08486000       0.01008700      -0.00690300       0.00080200
O        7.58419000       1.28354000       2.74151000      -0.00117000      -0.00812500      -0.01231500
O        7.12023000       3.96393000       2.48397000       0.00913700       0.00262800      -0.00994800
O        4.78754000       0.90603000       4.46950000       0.01223000      -0.00534200      -0.00066000
O        9.91156000       4.34037000       0.74874000      -0.00044100      -0.00382300      -0.00919000
O        9.47421000       3.53013000       3.40132000      -0.02150600       0.01775400      -0.00179900
O        5.22149000       1.71665000       1.82740000       0.01969200      -0.00807700       0.00086500
O        7.05194000       6.60416000       5.37732000       0.02767900      -0.01513200       0.00099300
O        1.94969000       6.58762000       5.41471000       0.01050400       0.01060400       0.01036300
O        1.51567000       6.52428000       8.07019000       0.00526700      -0.00331300      -0.00797800
O        1.05764000       9.21519000       7.81533000      -0.01017100      -0.00434000       0.00279600
O       -1.26811000       6.15305000       9.81428000      -0.01945300      -0.00120200      -0.00481800
O        3.84000000       9.60190000       6.09184000      -0.00418000       0.01302000       0.00686800
O        8.60964000       3.53325000       8.70770000      -0.00892800       0.01065700       0.00652000
O        9.02766000       4.34758000       6.05719000      -0.00548900      -0.01071600      -0.00609000
O        3.91487000       0.90370000       9.78083000       0.00705200      -0.00282900       0.00599000
O        6.24824000       3.95056000       7.80341000       0.01280700       0.00014000      -0.00184200
O        6.72815000       6.52641000       8.06286000      -0.00286600       0.01206600       0.00418100
O        6.24006000       9.21260000       7.78959000       0.00312200       0.00177500       0.00646800
O        3.91264000       6.16337000       9.79619000       0.02031700       0.02665800       0.01276500
O        9.03653000       9.58100000       6.05471000      -0.00098700      -0.00414200       0.00013200
O        8.60175000       8.77957000       8.69966000       0.00022400       0.00507700      -0.00461900
O        4.36734000       6.97107000       7.10836000      -0.00149200      -0.02180900       0.00077700
O        6.67961000       9.14999000       5.13489000      -0.01265500      -0.01748800       0.01407700
O        3.41168000       8.76713000       8.73232000       0.01507800      -0.01015300       0.00644900
O        8.01573000       6.59047000       0.09888000      -0.00168100      -0.00288200       0.00910800
O        7.12842000       9.22618000       2.47582000      -0.00706900      -0.00192700      -0.00961100
O        9.91635000       9.58022000       0.74369000      -0.01410400      -0.01718800      -0.00943300
O        9.47813000       8.77450000       3.40306000      -0.00700900       0.00767600      -0.01531400
O        5.19823000       6.91610000       1.89096000      -0.01370600      -0.00997000       0.01014500
O        5.80374000       3.89728000      10.44973000       0.01297600       0.01116000      -0.00082100
O        7.14805000       1.34359000       5.39317000      -0.00548100       0.00200000       0.00114600
O        6.70789000       1.26745000       8.04614000       0.00562200      -0.00702300       0.00213700
O        7.58023000       6.52147000       2.75255000      -0.01188100      -0.00547100      -0.00774800
O       -0.84998000       6.96061000       7.15394000      -0.00858600       0.01034300       0.01575100
O        5.80822000       9.14071000      10.44035000       0.00449400      -0.00403800       0.00947600
O       -1.27321000       0.90930000       9.81246000      -0.01861300      -0.01321600       0.00060200
O        2.39702000       1.27759000       2.76604000       0.00638100      -0.00626600      -0.00394800
O        1.91855000       3.96409000       2.50196000       0.00565100      -0.01182800      -0.01175400
O       -0.40018000       0.90738000       4.50604000      -0.00330000      -0.01000300       0.00817600
O        1.96180000       1.34459000       5.41573000      -0.01394600       0.00252400       0.01029200
O        0.61959000       3.89987000      10.46962000      -0.00011400       0.00472300      -0.00922400
O        1.05427000       3.97316000       7.81734000      -0.00325000       0.00041000      -0.00716400
O        1.49079000       3.89382000       5.16682000      -0.00383800      -0.00700400       0.01892100
O        3.84069000       4.37822000       6.05100000       0.01836900       0.01654400      -0.00878000
O        3.41908000       3.54594000       8.71726000       0.00513400      -0.00194700      -0.00480500
O        0.04439000       6.96225000       1.85630000      -0.02514800      -0.00231600      -0.00589200
O        4.26188000       8.72261000       3.47906000      -0.00078300      -0.01253800      -0.01024800
O        4.72143000       4.33388000       0.76293000       0.04113300      -0.00872400      -0.01242600
O        4.30257000       3.57107000       3.41767000       0.01603900      -0.00353500       0.01028800
O        0.03641000       1.71166000       1.85295000      -0.01968700       0.01082000      -0.00975800
O       -0.83601000       1.71544000       7.16014000       0.00265900      -0.00850100      -0.00941900
O        4.72431000       9.56993000       0.78915000       0.00452800      -0.01559400      -0.00400500
O       -0.41976000       6.15854000       4.51121000      -0.00116900       0.00509600       0.00195000
O        1.93399000       9.21767000       2.51019000      -0.00062100      -0.00878500      -0.00025200
O        2.40447000       6.52396000       2.77589000      -0.00850100       0.00208600       0.00409200
O        2.83553000       6.59490000       0.11683000      -0.01149700       0.00311800       0.00382000
O        1.48998000       9.14086000       5.16402000      -0.00358000       0.00212600      -0.00101800
O        2.83362000       1.34773000       0.11078000      -0.00220100      -0.00563400       0.00069000
O        1.52788000       1.27794000       8.07018000       0.00208500       0.00184600      -0.01130500
Zr       0.37549000       0.22664000       6.41351000       0.01460600       0.01403500      -0.01657900
Zr       2.19835000       5.02157000       9.47850000      -0.02423000      -0.01024500       0.00057700
Zr       7.38833000      10.26105000       9.45327000       0.01062100       0.02280300      -0.01011400
Zr       5.98833000       7.61373000       3.75906000      -0.00445300       0.00037500       0.02130500
Zr       7.81123000       8.09887000       6.79844000       0.00089300       0.00470000       0.00212000
Zr       5.13832000       7.63893000       9.04167000      -0.02628200       0.00696800       0.01135300
Zr       0.81511000       2.39186000       3.75775000      -0.00295000       0.00869500       0.00205800
Zr       3.50555000       2.85571000       1.51788000      -0.00499800      -0.00565000      -0.01777700
Zr       3.06330000       5.02033000       4.17263000      -0.00780200       0.00484500      -0.01033000
Zr       5.55482000       5.45974000       6.40201000      -0.02026600       0.00700800      -0.00345900
Zr       8.69638000       8.09943000       1.49651000       0.01422100       0.02134700       0.02422500
Zr      -0.06227000       7.64295000       9.06283000       0.02318900       0.00390200       0.01965100
Zr       6.43796000       5.46761000       1.09186000      -0.02158900      -0.00545000      -0.00111800
Zr       2.20024000      10.25623000       9.47696000      -0.00419900       0.00920600       0.00458600
Zr       0.36615000       5.47607000       6.41490000       0.01403900      -0.00707600      -0.02000200
Zr       6.44040000       0.23034000       1.08072000      -0.00811200       0.00817600       0.01887100
Zr       8.25091000       5.00582000       4.14190000       0.02178500      -0.00442800       0.00237500
Zr       8.69954000       2.84754000       1.48888000      -0.00201200       0.00670600       0.02166900
Zr       6.00503000       2.39493000       3.73407000      -0.00570700      -0.01731500      -0.01736300
Zr       0.80986000       7.63550000       3.76314000      -0.01809200      -0.00037000       0.00199900
Zr       3.50147000       8.08923000       1.53011000      -0.00253800      -0.00927600       0.00117200
Zr       3.06760000      10.26314000       4.17673000      -0.00152200       0.01502100      -0.00984800
Zr       1.25098000       5.47241000       1.10622000       0.01751200      -0.00055900       0.00853000
Zr       5.56708000       0.22994000       6.38478000      -0.00802200       0.03015800      -0.00166700
Zr       7.39081000       5.01668000       9.45528000       0.00575500      -0.01707700       0.01288700
Zr       7.82227000       2.84817000       6.80316000       0.00237400      -0.00716300      -0.01401200
Zr       5.13081000       2.39732000       9.03752000      -0.00806900       0.00270900      -0.00633400
Zr       2.64185000       8.09344000       6.81442000      -0.01408400       0.00677900       0.00103700
Zr      -0.05666000       2.39336000       9.06451000       0.02063000       0.01751800       0.02138200
Zr       2.63227000       2.86086000       6.81754000       0.01563800       0.00287700      -0.01305800
Zr       8.25936000      10.26164000       4.14380000      -0.00881100      -0.00357400      -0.02134800
Zr       1.25184000       0.22875000       1.10297000       0.03105500       0.00353500      -0.00497100
