95
Lattice="10.381444 0.0 -0.053824 0.0 10.490337 0.0 -1.746774 0.0 10.614441" Properties=species:S:1:pos:R:3:forces:R:3 energy=-909.93968447 stress="-1.91499 -0.25985 0.42885 -0.25985 -1.33782 0.65124 0.42885 0.65124 -2.23829" pbc="T T T"
O        0.61812000       9.14410000      10.47156000       0.00063000      -0.00436400      -0.00331700
O        4.36242000       1.73975000       7.11594000      -0.00544100      -0.00158500      -0.00707100
O        6.68405000       3.88514000       5.14133000       0.00586800       0.00245400      -0.00071200
O        8.02268000       1.34574000       0.08466000       0.00113500       0.00281400       0.00370200
O        7.58495000       1.28196000       2.73948000       0.00117500       0.00357800       0.00111000
O        7.12123000       3.96359000       2.48288000       0.00508800      -0.00600000       0.00269000
O        4.78965000       0.90321000       4.46688000       0.00414000       0.00651700       0.00299600
O        9.91399000       4.33828000       0.74764000      -0.00014100      -0.00323700      -0.00288100
O        9.47409000       3.53230000       3.40113000      -0.00085100       0.00169900      -0.00900300
O        5.22331000       1.71495000       1.82730000      -0.00430200      -0.00276300       0.00131600
O        7.05784000       6.60027000       5.38098000      -0.00767700       0.00029400       0.00250700
O        1.95016000       6.58958000       5.41518000      -0.00212600      -0.00167900       0.00018100
O        1.51650000       6.52414000       8.06955000      -0.00084800       0.00104300       0.00456700
O        1.05656000       9.21524000       7.81625000      -0.00161000      -0.00084000      -0.00384500
O       -1.27034000       6.15542000       9.81568000      -0.00034500       0.00246600       0.00632800
O        3.83579000       9.60822000       6.09517000       0.00231300      -0.00411100       0.00264200
O        8.61133000       3.53345000       8.70793000      -0.00396700       0.00923600      -0.00431400
O        9.02882000       4.34531000       6.05542000       0.00977900       0.00447100      -0.00221300
O        3.91616000       0.90372000       9.78084000      -0.00155500       0.00409600       0.00022800
O        6.25175000       3.95109000       7.80307000      -0.00099300       0.00587400      -0.00000400
O        6.72583000       6.52875000       8.06637000      -0.00116800      -0.00132800       0.00027100
O        6.23982000       9.21518000       7.79137000       0.00196100      -0.00209600      -0.00251400
O        3.90980000       6.17047000       9.80301000      -0.00487500       0.00085400       0.00193600
O        9.03634000       9.57939000       6.05149000       0.00358200      -0.00318800       0.00210400
O        8.60361000       8.78245000       8.69832000       0.00621900      -0.00601300       0.00021400
O        4.36431000       6.96951000       7.11076000       0.00779600      -0.00894900      -0.00260900
O        6.67618000       9.14619000       5.13748000       0.00014200       0.00137800       0.00609200
O        3.41183000       8.76735000       8.73336000      -0.00078200       0.00191700      -0.00575400
O        8.01483000       6.59005000       0.10381000      -0.00587400      -0.00575400      -0.00749500
O        7.12497000       9.22527000       2.47648000      -0.00044400      -0.00019400       0.00010000
O        9.91881000       9.57789000       0.74068000      -0.00744100      -0.00446100       0.00495000
O        9.47751000       8.77838000       3.39889000       0.00216100       0.00047300       0.00321900
O        5.18877000       6.90462000       1.90150000      -0.00758500      -0.00554200       0.00179000
O        5.80642000       3.89780000      10.44901000       0.00084900       0.00407500       0.00043400
O        7.14774000       1.34382000       5.39152000      -0.00209700      -0.00409900       0.00194800
O        6.70877000       1.26858000       8.04562000       0.00178600       0.00464900       0.00020700
O        7.57422000       6.52091000       2.75509000       0.00538700       0.00125700       0.00149100
O       -0.85063000       6.95980000       7.15783000       0.00546200      -0.00796900       0.00009800
O        5.80965000       9.14083000      10.44202000       0.00035900       0.00206700       0.00248000
O       -1.27226000       0.91003000       9.81209000       0.00097900       0.00082800       0.00179500
O        2.39848000       1.27643000       2.76463000      -0.00458600       0.00349200      -0.00240800
O        1.92183000       3.96156000       2.49896000      -0.00192100       0.00373400      -0.00323500
O       -0.40192000       0.90644000       4.50467000       0.00259900       0.00586300      -0.00004700
O        1.95986000       1.34608000       5.41422000       0.00155200       0.00766000      -0.00062000
O        0.62228000       3.90152000      10.46664000      -0.00321000       0.00050500       0.00907500
O        1.05466000       3.97306000       7.81596000       0.00717500       0.00269200      -0.00908500
O        1.49064000       3.89427000       5.16655000       0.00324300       0.00506900      -0.00706200
O        3.84122000       4.38073000       6.04749000       0.00907200       0.00281300      -0.00068300
O        3.42208000       3.54952000       8.71277000      -0.00129500       0.00828200      -0.00383900
O        0.03904000       6.95974000       1.85790000      -0.00144800      -0.00870000       0.00204700
O        4.25752000       8.71784000       3.48237000       0.01033100       0.00081900      -0.00692200
O        4.73035000       4.32416000       0.75440000       0.00030900      -0.00206600       0.00004900
O        4.30613000       3.57362000       3.41555000      -0.00133700      -0.00291700      -0.00105600
O        0.03571000       1.71137000       1.85192000      -0.00435400       0.00594500       0.00273400
O       -0.83535000       1.71463000       7.15921000       0.00283700      -0.00245300      -0.00302800
O        4.72708000       9.56412000       0.78847000      -0.00134200      -0.00267000       0.00135500
O       -0.42154000       6.16132000       4.51324000      -0.00232700       0.00142900       0.00235500
O        1.93332000       9.21644000       2.50959000      -0.00046700      -0.00193100      -0.00125200
O        2.39810000       6.52318000       2.77654000       0.00124300      -0.00029000      -0.00111800
O        2.83381000       6.59420000       0.11795000       0.00146900      -0.00037000       0.00047400
O        1.48898000       9.14240000       5.16293000      -0.00569800      -0.00216600       0.00340800
O        2.83486000       1.34757000       0.10963000       0.00262500       0.00300100       0.00575200
O        1.53025000       1.27857000       8.06857000      -0.00068700       0.00281600      -0.00658400
Zr       0.37643000       0.22763000       6.41102000      -0.00834300      -0.00040100       0.00278800
Zr       2.19819000       5.02124000       9.47674000       0.00647000      -0.00051000       0.00458200
Zr       7.38976000      10.26335000       9.45283000      -0.00032900       0.00238700      -0.00524900
Zr       5.98493000       7.60839000       3.76568000      -0.00693000       0.00689800      -0.00219300
Zr       7.81190000       8.09982000       6.80089000      -0.00022900       0.00255800       0.00656900
Zr       5.13732000       7.64016000       9.04461000      -0.00394500       0.01003000       0.00873000
Zr       0.81321000       2.39155000       3.75612000       0.00139600      -0.00565200       0.00208000
Zr       3.50832000       2.85570000       1.51485000      -0.00298100      -0.00969300      -0.00011700
Zr       3.06302000       5.02088000       4.17009000       0.00273900       0.00043600       0.00167000
Zr       5.55407000       5.46107000       6.40413000       0.00054500       0.00585600       0.00033800
Zr       8.69607000       8.10189000       1.49747000      -0.00323100       0.00511400      -0.00092200
Zr      -0.06083000       7.64336000       9.06458000      -0.00480700       0.00722200      -0.00158100
Zr       6.43679000       5.46860000       1.09317000       0.00043400      -0.00047700      -0.00194800
Zr       2.20075000      10.25632000       9.47719000       0.00196700       0.00625900      -0.00337700
Zr       0.36714000       5.47697000       6.41376000      -0.00894700       0.00311200      -0.00095200
Zr       6.44134000       0.22936000       1.08142000      -0.00223400      -0.00392500      -0.00564700
Zr       8.24966000       5.00636000       4.14292000       0.00840400      -0.00369200       0.00523200
Zr       8.69945000       2.84806000       1.48905000       0.00094100      -0.00361600      -0.00012400
Zr       6.00596000       2.39446000       3.73199000      -0.00481100      -0.00787200       0.00271000
Zr       0.80679000       7.63671000       3.76349000       0.00035200       0.00205800      -0.00178100
Zr       3.50124000       8.08733000       1.53204000       0.00147100       0.00639400       0.00282000
Zr       3.06737000      10.26424000       4.17542000       0.00039900      -0.00648600      -0.00014900
Zr       1.24991000       5.47314000       1.10698000      -0.00055800       0.00213400       0.00321300
Zr       5.56653000       0.23180000       6.38510000      -0.00176300       0.00199000       0.00547000
Zr       7.39207000       5.01590000       9.45634000      -0.00057800       0.00046900      -0.00244400
Zr       7.82325000       2.84824000       6.80150000       0.00004200      -0.00733400       0.00312200
Zr       5.13167000       2.39887000       9.03752000       0.00125400      -0.01309300      -0.00633400
Zr       2.64107000       8.09520000       6.81464000      -0.00522300       0.00723300       0.00413700
Zr      -0.05439000       2.39482000       9.06378000      -0.00312700      -0.01157500      -0.00253200
Zr       2.63411000       2.86321000       6.81448000       0.00347200      -0.01521100       0.00548700
Zr       8.25541000      10.26005000       4.14299000       0.00351300       0.00200000      -0.00034600
Zr       1.25365000       0.22838000       1.10231000       0.00416600      -0.00104100      -0.00922600
