95
Lattice="10.381444 0.0 -0.053824 0.0 10.490337 0.0 -1.746774 0.0 10.614441" Properties=species:S:1:pos:R:3:forces:R:3 energy=-910.0579847 stress="-0.04631 -0.29443 0.04434 -0.29443 -0.44057 0.90287 0.04434 0.90287 -1.64617" pbc="T T T"
O        0.61337000       9.14359000      10.47404000       0.00183900       0.00379500       0.00737200
O        8.60608000       3.53638000       8.72236000       0.00902100       0.00101200      -0.00059100
O        4.34737000       1.71336000       7.13511000      -0.00959500      -0.01698000       0.00168700
O        8.02093000       1.34789000       0.08810000       0.00122000       0.00821400      -0.00380200
O        7.58890000       1.26817000       2.73604000       0.00355100       0.00302200       0.01150600
O        7.10235000       3.97263000       2.53358000       0.00151400      -0.00812800      -0.01672000
O        4.78489000       0.89483000       4.47908000      -0.00876800      -0.01372600      -0.01951300
O        9.90640000       4.34083000       0.75216000       0.00118600       0.00661400       0.01143700
O        9.47922000       3.52401000       3.39843000       0.00216900       0.00391200       0.01000900
O        5.23158000       1.71946000       1.81285000      -0.00012000       0.02130300       0.00033400
O        7.14494000       6.56365000       5.39291000      -0.00842700       0.00864300      -0.00013200
O        1.97115000       6.58738000       5.42439000      -0.00855700      -0.01673400      -0.00695300
O        1.51554000       6.52040000       8.07261000       0.00096400      -0.00191000       0.00240800
O        1.04738000       9.21437000       7.82269000      -0.00557300       0.00122900       0.00234300
O       -1.27759000       6.15394000       9.81631000      -0.00078400       0.00638400       0.02002300
O        3.84294000       9.58413000       6.08692000      -0.00660500       0.00705200      -0.00073600
O        9.01035000       4.34170000       6.04647000       0.00825800      -0.00266200       0.01260200
O        3.91847000       0.90657000       9.78260000       0.00115900      -0.00452300       0.00714900
O        6.24919000       3.96357000       7.73402000      -0.00314200       0.00866800       0.00772900
O        6.70480000       1.26607000       8.05063000      -0.00385400       0.00199600      -0.01878200
O        6.70817000       6.52376000       8.05431000      -0.00520300      -0.01468100      -0.00168500
O        6.24127000       9.21123000       7.79224000      -0.01509600       0.00357700      -0.01140400
O        3.91618000       6.15140000       9.78796000      -0.01450900       0.00467500      -0.00169300
O        9.02984000       9.59005000       6.05546000      -0.01490900       0.01518600       0.00785100
O        8.59923000       8.77335000       8.70551000       0.00549900      -0.00458400      -0.00314300
O        4.35134000       6.97582000       7.13664000      -0.01625900       0.00604000      -0.00469600
O        6.68351000       9.14246000       5.13994000       0.00221000       0.00814000      -0.00713400
O        3.40604000       8.77693000       8.73967000      -0.00623000      -0.01824400      -0.00481200
O        8.01942000       6.59298000       0.08681000      -0.00856100       0.00071200       0.00149300
O        7.11463000       9.21465000       2.48586000      -0.00237200      -0.00883100       0.00385700
O        4.79366000       6.14624000       4.47843000       0.00197100      -0.00101100      -0.00247500
O        9.90953000       9.58396000       0.74887000       0.00813400      -0.00190800      -0.00097700
O        9.47221000       8.77515000       3.40178000       0.00119200       0.00213700       0.01075000
O        5.22222000       6.96049000       1.82335000      -0.00848700       0.00008200      -0.00927300
O        5.80539000       3.89878000      10.44442000       0.00203400      -0.00143000      -0.00815800
O        7.10821000       1.42061000       5.38077000      -0.00164700       0.00637800       0.01876600
O        7.57916000       6.52863000       2.73047000      -0.00423600      -0.00438600       0.00334100
O       -0.84344000       6.96116000       7.16264000      -0.00420300      -0.00720800       0.00329400
O        5.80469000       9.14460000      10.44879000      -0.00115300       0.00111600      -0.01108000
O       -1.27474000       0.90530000       9.81153000       0.02472600       0.00667600      -0.01207000
O        2.82984000       1.34883000       0.11517000       0.00797900       0.00213500      -0.00352200
O        2.39275000       1.27661000       2.76695000       0.00588000      -0.00153200      -0.00087900
O        1.92908000       3.96912000       2.51709000       0.00536900      -0.00133400       0.00090900
O       -0.40285000       0.90454000       4.50391000       0.00056400       0.00657600      -0.00387300
O        0.61769000       3.89957000      10.47724000       0.00350300      -0.00050700       0.00433000
O        1.05050000       3.96903000       7.81946000      -0.00416300       0.00391200       0.00274400
O        1.48926000       3.89763000       5.16902000      -0.00270500      -0.00071200       0.00281900
O        3.86326000       4.32429000       6.07351000       0.00549800      -0.02030900      -0.01073400
O        3.41176000       3.53218000       8.73323000       0.01156200       0.01540100      -0.00613900
O        0.03411000       6.96119000       1.85504000       0.01979300      -0.02311500       0.00749900
O        4.28397000       8.76957000       3.42845000      -0.01760400      -0.00086600      -0.00140500
O        4.72173000       4.33974000       0.77661000       0.00110300      -0.00055600      -0.00362800
O        4.29432000       3.52874000       3.43730000      -0.01396000      -0.00054300      -0.00194000
O        0.03371000       1.71662000       1.84797000       0.00724400       0.01279800       0.01106500
O       -0.82040000       1.71630000       7.15873000       0.02056400       0.00652600      -0.00985500
O        4.71908000       9.58475000       0.77443000      -0.00850600      -0.00157300       0.01459200
O       -0.39290000       6.16221000       4.52099000       0.01941600       0.02274700       0.00230200
O        1.92565000       9.21702000       2.51209000       0.01366500      -0.01137100       0.00102700
O        2.39365000       6.51946000       2.76675000      -0.00060100      -0.00244200      -0.00335800
O        2.82841000       6.59237000       0.11230000      -0.00141600       0.00558200       0.01114600
O        1.48704000       9.14110000       5.16823000      -0.00399200      -0.02062000       0.00229200
O        1.95637000       1.34660000       5.41997000      -0.00278800      -0.00175000      -0.00129100
O        1.52898000       1.27380000       8.07626000      -0.00461300       0.00948800       0.00102300
Zr       0.37815000       0.22752000       6.41536000      -0.00613200      -0.00626400       0.00299000
Zr       2.19451000       5.01706000       9.48001000      -0.00114200      -0.00294600      -0.00153900
Zr       7.38820000      10.26177000       9.45169000      -0.01725900      -0.00096700       0.02153400
Zr       2.62873000       2.85189000       6.82685000       0.00238200       0.00054100      -0.00229900
Zr       7.81915000       8.09244000       6.80034000      -0.00413300       0.00293700       0.00056300
Zr       5.12704000       7.64530000       9.04586000       0.02931000       0.00723400       0.01716700
Zr       0.81491000       2.39234000       3.76157000      -0.00901400      -0.00045000      -0.00343400
Zr       3.51147000       2.85120000       1.52334000      -0.00074500      -0.00325800      -0.00007000
Zr       3.07083000       5.01380000       4.17380000       0.02134800      -0.00640800       0.00755400
Zr       5.55566000       5.48762000       6.40004000       0.00825300      -0.00568500      -0.00516500
Zr       6.00279000       7.63491000       3.73012000       0.00850100      -0.01471700       0.01032100
Zr      -0.06079000       7.64027000       9.06928000      -0.01834800       0.00142800      -0.00612200
Zr       8.26877000      10.25411000       4.14089000       0.00009100      -0.00425700       0.00143900
Zr       2.19497000      10.26279000       9.48093000      -0.00424200       0.00125900      -0.00327100
Zr       0.36123000       5.47619000       6.40663000      -0.00190700       0.00723600       0.01873300
Zr       6.44065000       0.22606000       1.07896000       0.04076600      -0.01075900      -0.01719500
Zr       8.25356000       5.00527000       4.13658000       0.00292400       0.00802400      -0.01625800
Zr       8.69868000       2.84818000       1.50010000      -0.00506600       0.00278700      -0.01016100
Zr       6.01295000       2.38445000       3.72670000       0.01411100      -0.01237300      -0.00493600
Zr       0.81428000       7.63267000       3.76387000      -0.01044900       0.02143100       0.00994700
Zr       3.50334000       8.09767000       1.51954000       0.00418800       0.00113400      -0.00228600
Zr       3.07155000      10.26050000       4.17246000      -0.02214400      -0.00578900       0.00293800
Zr       1.24843000       5.47304000       1.10995000      -0.01269600      -0.00200500      -0.00633600
Zr       5.55467000       0.23179000       6.38713000       0.00485500       0.00344700      -0.00386400
Zr       7.39437000       5.01564000       9.45049000      -0.00397500      -0.00076000       0.00117700
Zr       7.83299000       2.84880000       6.79433000       0.00332300      -0.01304600      -0.00605700
Zr       5.12773000       2.38695000       9.03837000       0.01927600       0.00229800      -0.00144100
Zr       2.62523000       8.09570000       6.82759000      -0.01129800       0.01172800       0.00591900
Zr      -0.05843000       2.39408000       9.06965000      -0.02035600       0.01188800      -0.00389200
Zr       6.43743000       5.47648000       1.08116000       0.02533300       0.00281000       0.00207900
Zr       8.69397000       8.09191000       1.49256000       0.00708100       0.01553200      -0.02269500
Zr       1.24886000       0.22797000       1.10588000      -0.02297900      -0.01958300       0.00141400
