95
Lattice="10.381444 0.0 -0.053824 0.0 10.490337 0.0 -1.746774 0.0 10.614441" Properties=species:S:1:pos:R:3:forces:R:3 energy=-910.05880831 stress="-0.05162 -0.2524 0.04406 -0.2524 -0.41524 0.91174 0.04406 0.91174 -1.63847" pbc="T T T"
O        0.61306000       9.14396000      10.47422000      -0.00309500       0.00538300       0.00801200
O        8.60691000       3.53628000       8.72221000      -0.00966400       0.01122600       0.00378000
O        4.34580000       1.71166000       7.13566000      -0.00102200      -0.01093400       0.00369000
O        8.02138000       1.34826000       0.08766000       0.00925700       0.00282400      -0.00579000
O        7.58975000       1.26809000       2.73658000       0.00698500      -0.00635000       0.00424600
O        7.10246000       3.97192000       2.53228000       0.00556900      -0.00057300      -0.00891700
O        4.78480000       0.89365000       4.47637000      -0.01147600      -0.01862400      -0.00060700
O        9.90593000       4.34190000       0.75349000      -0.01473200      -0.00820200       0.00475500
O        9.47945000       3.52472000       3.39919000      -0.00933200       0.00643000       0.00592500
O        5.23316000       1.72089000       1.81269000       0.01211900       0.00165500      -0.01220100
O        7.14464000       6.56455000       5.39308000      -0.00343000       0.00377100      -0.00043200
O        1.97127000       6.58540000       5.42418000      -0.00037600       0.00362800       0.00919800
O        1.51478000       6.52021000       8.07281000      -0.00126500       0.00733600       0.00113600
O        1.04615000       9.21450000       7.82288000      -0.00264500       0.00182800       0.00552000
O       -1.27829000       6.15445000       9.81851000      -0.00438500       0.01403900      -0.00011200
O        3.84155000       9.58440000       6.08778000      -0.00185800       0.01209300      -0.00879700
O        9.01139000       4.34227000       6.04740000      -0.00672200       0.00005500      -0.00477300
O        3.91921000       0.90595000       9.78272000       0.00527300       0.00115700       0.00525800
O        6.25010000       3.96356000       7.73376000      -0.00276400      -0.00161000       0.00226000
O        6.70480000       1.26558000       8.04897000      -0.00035000      -0.00152800       0.00005200
O        6.70717000       6.52242000       8.05497000       0.00351200       0.00123100      -0.00668400
O        6.24005000       9.21107000       7.79165000      -0.00550700       0.00232000      -0.00268100
O        3.91538000       6.15210000       9.78794000       0.00232000       0.01072100       0.00293900
O        9.02840000       9.59224000       6.05643000      -0.01902700       0.00156900       0.00764000
O        8.59922000       8.77335000       8.70521000      -0.01259500       0.00573000       0.00161900
O        4.35129000       6.97633000       7.13643000      -0.01190200      -0.00000600      -0.00661400
O        6.68420000       9.14256000       5.13910000      -0.00227800       0.00909500      -0.00165500
O        3.40534000       8.77592000       8.74021000      -0.01073700      -0.00805700      -0.00271500
O        8.01884000       6.59359000       0.08711000      -0.00018400       0.00531300       0.00210900
O        7.11456000       9.21318000       2.48576000       0.01072800       0.00181400      -0.00875500
O        4.79399000       6.14633000       4.47826000       0.00460300      -0.00592700      -0.00005500
O        9.90957000       9.58354000       0.74871000       0.00488900       0.00062200      -0.00278300
O        9.47278000       8.77476000       3.40221000      -0.01414600       0.01438600       0.00080300
O        5.22181000       6.96005000       1.82282000       0.00379700      -0.00142200      -0.00398600
O        5.80577000       3.89887000      10.44322000       0.00387000      -0.00292200      -0.00214500
O        7.10505000       1.42267000       5.38165000       0.01526700      -0.00134000       0.00527300
O        7.57897000       6.52818000       2.73071000       0.00110200      -0.00098700      -0.00288600
O       -0.84439000       6.96037000       7.16336000      -0.01600000       0.00936300       0.00584000
O        5.80478000       9.14513000      10.44836000       0.00514000       0.00472200      -0.00371600
O       -1.27313000       0.90549000       9.81039000      -0.00859900      -0.02253000       0.00033100
O        2.83019000       1.34941000       0.11509000       0.00385400      -0.01311300       0.00251300
O        2.39313000       1.27654000       2.76690000      -0.00158300      -0.01332100      -0.00202600
O        1.93016000       3.96919000       2.51778000      -0.00366200      -0.00735100      -0.00453800
O       -0.40278000       0.90476000       4.50382000      -0.00831900      -0.00318600      -0.00295600
O        0.61839000       3.89971000      10.47770000      -0.00209800      -0.00194000       0.00143500
O        1.04992000       3.96910000       7.81972000       0.00481800       0.00631900       0.00230700
O        1.48918000       3.89729000       5.16934000      -0.00072400      -0.00229500       0.00406800
O        3.86480000       4.32192000       6.07180000       0.01231000      -0.01508400      -0.00291000
O        3.41281000       3.53416000       8.73232000       0.02359700      -0.00264900      -0.00924900
O        0.03508000       6.95973000       1.85621000      -0.01557500       0.00779200       0.00262000
O        4.28315000       8.76852000       3.42854000      -0.01139200       0.00097100       0.00591300
O        4.72227000       4.33999000       0.77658000       0.00551200      -0.00172400      -0.00293800
O        4.29352000       3.52794000       3.43719000       0.00783300      -0.00607700      -0.00053500
O        0.03397000       1.71771000       1.84807000       0.00940300      -0.00496500       0.00183100
O       -0.81859000       1.71793000       7.15808000       0.00724400       0.00309400      -0.01696500
O        4.71909000       9.58512000       0.77532000       0.00060100       0.00766600       0.00852800
O       -0.39252000       6.16423000       4.52103000      -0.00574300       0.00262500       0.01457900
O        1.92642000       9.21649000       2.51213000      -0.00235500      -0.00174300       0.00052200
O        2.39349000       6.51891000       2.76688000       0.00456800       0.00338600       0.00142900
O        2.82801000       6.59268000       0.11282000      -0.00260500       0.00996300       0.00206000
O        1.48611000       9.13912000       5.16867000      -0.00214000      -0.00478200       0.00669000
O        1.95607000       1.34637000       5.41996000      -0.00435200      -0.01120100      -0.00297700
O        1.52961000       1.27438000       8.07649000      -0.00527700      -0.00057000       0.00080300
Zr       0.37734000       0.22753000       6.41568000       0.01118200       0.00679500       0.00345800
Zr       2.19459000       5.01695000       9.48038000      -0.00137500       0.00280600       0.00249300
Zr       7.38763000      10.26161000       9.45185000       0.00677000       0.02101400      -0.00288900
Zr       2.62846000       2.85148000       6.82704000      -0.01143800       0.00968500      -0.00356700
Zr       7.81826000       8.09271000       6.80045000      -0.00046800       0.00167000      -0.00488500
Zr       5.12791000       7.64577000       9.04652000      -0.00664000      -0.01549800      -0.00437200
Zr       0.81487000       2.39248000       3.76140000       0.00541600       0.01071400       0.00144300
Zr       3.51223000       2.85075000       1.52311000      -0.01116100       0.00567700      -0.00057300
Zr       3.07151000       5.01319000       4.17407000      -0.00106700      -0.00297900      -0.00440300
Zr       5.55556000       5.48729000       6.39929000      -0.00372600       0.00035200       0.00660500
Zr       6.00302000       7.63440000       3.72990000      -0.01263800      -0.00161700       0.00668500
Zr      -0.06170000       7.64081000       9.06923000      -0.00533000      -0.02218300       0.00545500
Zr       8.26943000      10.25338000       4.14048000      -0.00291600      -0.00007400       0.00748400
Zr       2.19443000      10.26274000       9.48139000       0.00649900       0.01548900      -0.00299500
Zr       0.36152000       5.47742000       6.40744000       0.00413900      -0.01755200       0.00745700
Zr       6.44276000       0.22599000       1.07853000      -0.00666500      -0.00608100      -0.00889500
Zr       8.25330000       5.00667000       4.13575000       0.02708800      -0.01097500       0.00590400
Zr       8.69836000       2.84824000       1.50063000       0.01400500       0.01381200      -0.01432200
Zr       6.01323000       2.38447000       3.72586000      -0.00622100      -0.00577500       0.00272800
Zr       0.81426000       7.63274000       3.76486000       0.01441500      -0.00640300      -0.00443300
Zr       3.50308000       8.09793000       1.51908000       0.01457200      -0.01956500       0.00742400
Zr       3.07047000      10.25968000       4.17244000      -0.00627800       0.00313400       0.00037100
Zr       1.24810000       5.47270000       1.11046000       0.01168000      -0.00243400       0.00407100
Zr       5.55361000       0.23253000       6.38653000       0.00198400      -0.00640500      -0.01335400
Zr       7.39439000       5.01527000       9.45019000       0.00698000      -0.00288300       0.00594400
Zr       7.83374000       2.84885000       6.79317000       0.00626500       0.00420400      -0.00183000
Zr       5.12885000       2.38668000       9.03757000      -0.00664300       0.01015100      -0.00226000
Zr       2.62448000       8.09623000       6.82832000       0.00155400      -0.01341700       0.00217800
Zr      -0.05900000       2.39516000       9.06918000       0.00941800       0.00692800       0.01135100
Zr       6.43850000       5.47661000       1.08128000      -0.01030700       0.00181700      -0.01111300
Zr       8.69452000       8.09202000       1.49173000       0.01678100      -0.00907100       0.00268500
Zr       1.24854000       0.22627000       1.10631000      -0.00013400       0.02955200      -0.00813500
