95
Lattice="10.381444 0.0 -0.053824 0.0 10.490337 0.0 -1.746774 0.0 10.614441" Properties=species:S:1:pos:R:3:forces:R:3 energy=-894.43195391 stress="-0.47155 -1.3081 -1.21164 -1.3081 -2.11851 -0.15605 -1.21164 -0.15605 -4.51362" pbc="T T T"
O        0.61434000       9.14320000      10.47430000       0.03319500       0.01897100       0.04068600
O        8.59969000       3.52898000       8.70845000       0.16143700      -0.08384400       0.12909300
O        4.35231000       1.71619000       7.13248000      -0.06353100      -0.14537400      -0.00609200
O        6.67845000       3.89803000       5.14017000       0.91457500      -1.09031800      -0.81224100
O        8.02033000       1.34713000       0.08631000      -0.01214500      -0.04994000       0.01144400
O        7.58363000       1.27545000       2.73992000       0.03432900      -0.05323900      -0.07592100
O        7.11515000       3.96972000       2.48656000      -0.01614000      -0.00114400      -0.26350000
O        4.78901000       0.90639000       4.47887000      -0.15133700      -0.14583700       0.02949500
O        9.03638000       4.33878000       6.05484000       0.49248400      -0.00057800       0.00020700
O        9.90977000       4.33878000       0.74762000       0.08858400      -0.02540500       0.09055100
O        5.22570000       1.71619000       1.82526000      -0.08293100      -0.03744400      -0.16230700
O        7.14694000       6.59230000       5.39353000       0.84856200       0.64644300      -0.92192800
O        1.95622000       6.59230000       5.42045000      -0.17162500       0.04176900      -0.11939100
O        1.51952000       6.52062000       8.07406000      -0.02137900       0.01574500       0.08637900
O        1.05104000       9.21489000       7.82069000      -0.05761800       0.09748700       0.08792500
O       -1.27510000       6.15156000       9.81300000       0.14857800       0.06933200       0.03857300
O        3.84566000       9.58394000       6.08175000       0.07250900       0.08547000       0.00046100
O        9.47308000       3.52898000       3.40123000       0.26164900      -0.18174800      -0.11599200
O        3.40897000       8.77414000       8.73536000      -0.10251400       0.21042000       0.12561300
O        3.91562000       0.90639000       9.78609000      -0.13796500      -0.11964300       0.01366300
O        6.71025000       1.27545000       8.04714000      -0.02299700      -0.12415900       0.03834200
O        6.71025000       6.52062000       8.04714000       0.59060300       0.70399000       0.96411200
O        6.24176000       9.21489000       7.79378000      -0.03772900       0.21309500       0.04545900
O        3.91562000       6.15156000       9.78609000      -0.21872900      -0.00298300       0.18977000
O        9.03638000       9.58394000       6.05484000       0.13137900       0.13239600      -0.05461100
O        8.59969000       8.77414000       8.70845000       0.03308600       0.04893900       0.12071000
O        4.35231000       6.96136000       7.13248000      -0.66896500       0.78838600       0.38235500
O        6.67845000       9.14320000       5.14017000       0.00762900       0.21360800      -0.03945200
O        6.24176000       3.96972000       7.79378000       0.75628700      -1.00026200       1.01930700
O        8.02033000       6.59230000       0.08631000       0.02188600       0.00829800       0.10878300
O        7.11515000       9.21489000       2.48656000      -0.00723200       0.05133600      -0.08072800
O        4.78901000       6.15156000       4.47887000      -0.26423700       0.63099000      -0.92772000
O        9.90977000       9.58394000       0.74762000       0.04923000       0.01735500      -0.00275900
O        9.47308000       8.77414000       3.40123000       0.04422900      -0.01073900      -0.02894000
O        5.22570000       6.96136000       1.82526000      -0.14541500      -0.05420100      -0.02753700
O        5.80506000       3.89803000      10.44739000      -0.07508700      -0.02141500       0.21276000
O        7.14694000       1.34713000       5.39353000      -0.02591400      -0.26001600      -0.03309600
O        7.58363000       6.52062000       2.73992000       0.02212100       0.13013300      -0.25162500
O       -0.83841000       6.96136000       7.15939000       0.19306300       0.02138200       0.06595500
O        5.80506000       9.14320000      10.44739000       0.03319700       0.11485000       0.09624900
O       -1.27510000       0.90639000       9.81300000       0.01310500      -0.01685000       0.01155800
O        1.48773000       3.89803000       5.16708000      -0.03321100       0.04192700      -0.01016800
O        2.82960000       1.34713000       0.11323000       0.01977200      -0.01471600       0.00030100
O        2.39291000       1.27545000       2.76684000       0.01512700      -0.01166000      -0.02128400
O        1.92442000       3.96972000       2.51347000      -0.02254000      -0.04437300      -0.06523900
O        0.61434000       3.89803000      10.47430000       0.00795600       0.00363200       0.01758900
O       -0.40171000       0.90639000       4.50578000       0.04903300       0.01897100      -0.01335700
O        1.05104000       3.96972000       7.82069000      -0.04930800      -0.02204200       0.08308700
O        3.84566000       4.33878000       6.08175000      -0.94675300      -0.42429000      -0.15051600
O        0.03498000       6.96136000       1.85217000       0.03872200      -0.01488800      -0.00971800
O        4.28236000       8.77414000       3.42814000      -0.13923300       0.11083400      -0.04565900
O        1.95622000       1.34713000       5.42045000       0.00737300      -0.05639500      -0.05921000
O        4.71905000       9.58394000       0.77453000      -0.00126000      -0.05791000       0.02812900
O        4.28236000       3.52898000       3.42814000      -0.10062300      -0.06180300      -0.16425100
O        0.03498000       1.71619000       1.85217000       0.06215700      -0.04692600      -0.00870400
O        3.40897000       3.52898000       8.73536000      -0.15156300      -0.05214900       0.13332800
O       -0.40171000       6.15156000       4.50578000       0.19372000       0.14233000      -0.00970500
O        1.92442000       9.21489000       2.51347000       0.03118200      -0.00592600      -0.03059700
O        2.39291000       6.52062000       2.76684000       0.01659700       0.10239100      -0.10193000
O        2.82960000       6.59230000       0.11323000       0.03461100       0.01850800       0.03775900
O        1.48773000       9.14320000       5.16708000       0.00968200       0.06813500      -0.08537400
O       -0.83841000       1.71619000       7.15939000       0.24144100      -0.13881100       0.07966000
O        4.71905000       4.33878000       0.77453000       0.00977400       0.01044200       0.03790000
O        1.51952000       1.27545000       8.07406000      -0.02108300      -0.08198800       0.08582000
Zr       0.37497000       0.22822000       6.41431000      -0.09564100      -0.01602100      -0.01179200
Zr       2.19559000       5.01695000       9.48044000       0.06039900       0.04227400      -0.28367000
Zr       7.82301000       8.09597000       6.79992000      -0.97664300      -1.23591600      -0.30109600
Zr       2.63229000       2.85080000       6.82683000       0.46398100       0.48575400      -0.10815500
Zr       5.12900000       7.63954000       9.04101000       0.27043600      -0.86991500      -1.16615400
Zr       0.81166000       2.39437000       3.76070000      -0.10902500      -0.01855400      -0.02931200
Zr       3.50567000       2.85080000       1.51961000      -0.08260100      -0.03385000       0.05437900
Zr       3.06898000       5.01695000       4.17322000       0.97281400       0.24108900       1.02230500
Zr       7.38631000      10.26212000       9.45353000      -0.10196100       0.00042700      -0.02705100
Zr       6.00238000       7.63954000       3.73379000       0.22910200      -0.77841300       1.30084100
Zr       2.63229000       8.09597000       6.82683000       0.42827600      -0.76866200      -0.01414500
Zr       8.25970000      10.26212000       4.14631000      -0.09946700       0.01135900       0.07424200
Zr       2.19559000      10.26212000       9.48044000      -0.10977400      -0.01082800      -0.10171400
Zr       0.37497000       5.47339000       6.41431000      -0.22463500       0.02015000       0.05715800
Zr       6.43908000       0.22822000       1.08018000       0.22139300       0.01176300       0.08253400
Zr       8.25970000       5.01695000       4.14631000      -1.43378800      -0.09331500       1.05754800
Zr       8.69640000       2.85080000       1.49270000      -0.12175000       0.07466500       0.04342800
Zr       6.00238000       2.39437000       3.73379000       0.38502400       0.75084200       0.74492200
Zr       0.81166000       7.63954000       3.76070000      -0.02120700      -0.01738900       0.10436200
Zr       3.50567000       8.09597000       1.51961000      -0.23881600       0.02670700      -0.00037200
Zr       3.06898000      10.26212000       4.17322000      -0.04936400       0.06901600      -0.02654900
Zr       1.24835000       5.47339000       1.10709000      -0.06662800      -0.02714200      -0.00723800
Zr       5.56569000       0.22822000       6.38740000       0.26015000       0.00287800      -0.02310200
Zr       7.38631000       5.01695000       9.45353000      -0.84303900       0.10596300      -1.10600500
Zr       7.82301000       2.85080000       6.79992000      -1.19913000       1.32094800      -0.51680400
Zr       5.12900000       2.39437000       9.04101000       0.39111200       0.73518900      -0.36965100
Zr      -0.06173000       7.63954000       9.06792000      -0.02482600      -0.09496600      -0.12475500
Zr      -0.06173000       2.39437000       9.06792000      -0.03523300       0.03491700      -0.09666900
Zr       6.43908000       5.47339000       1.08018000       0.31179700      -0.25829500       0.00497800
Zr       8.69640000       8.09597000       1.49270000      -0.07457500      -0.03348800       0.04192700
Zr       1.24835000       0.22822000       1.10709000      -0.02618500       0.00426100       0.01213500
