95
Lattice="10.381444 0.0 -0.053824 0.0 10.490337 0.0 -1.746774 0.0 10.614441" Properties=species:S:1:pos:R:3:forces:R:3 energy=-895.78766273 stress="9.15265 -0.50672 -2.09964 -0.50672 4.01871 -0.60233 -2.09964 -0.60233 0.10279" pbc="T T T"
O        0.61296000       9.14416000      10.48361000       0.01271300      -0.00536700       0.04555700
O        8.64465000       3.56314000       8.70879000       0.08465800       0.05657800      -0.05979400
O        4.35156000       1.70667000       7.12963000      -0.03752300       0.06663300       0.06911800
O        6.79570000       3.77327000       5.07916000       0.03122700      -0.00678000       0.01383700
O        8.02654000       1.35648000       0.08083000      -0.01993900       0.05708700      -0.00399700
O        7.58731000       1.27942000       2.73918000       0.03306100      -0.02169000      -0.00104800
O        7.10568000       3.97225000       2.47755000       0.01407200      -0.02284400       0.07993600
O        4.78190000       0.91592000       4.48042000      -0.06525900      -0.00949700      -0.00954800
O        9.06608000       4.33271000       6.07221000      -0.00621200       0.06290200      -0.02574300
O        9.91086000       4.33315000       0.73740000       0.05416000       0.00973300       0.00585800
O        5.22493000       1.70500000       1.80354000      -0.11623000       0.07802800       0.00051300
O        7.30398000       6.66606000       5.25533000       0.01944400       0.05328600      -0.02047700
O        1.94251000       6.59565000       5.41292000       0.01811600       0.05823100       0.01374600
O        1.51606000       6.52255000       8.07327000       0.00056500      -0.00746800       0.05270700
O        1.04162000       9.21800000       7.82862000      -0.02482000       0.00013100       0.02111800
O       -1.26539000       6.14288000       9.80151000       0.11693400       0.03222900       0.05311000
O        3.84787000       9.58646000       6.08495000      -0.11793500      -0.00460900       0.01356600
O        9.47972000       3.54128000       3.40342000       0.06796800       0.01356800      -0.06628200
O        3.41079000       8.80028000       8.76112000      -0.03915900       0.00176500      -0.02664600
O        3.91358000       0.90455000       9.77941000      -0.06041400      -0.04899800       0.00638000
O        6.71602000       1.24351000       8.03711000      -0.01939400       0.02512200       0.01398300
O        6.84395000       6.63416000       8.14752000      -0.03713900      -0.08930000       0.08916600
O        6.23105000       9.21591000       7.79006000      -0.02830600      -0.03222700       0.02840500
O        3.89719000       6.15960000       9.79977000      -0.11976200      -0.02473200       0.00137700
O        9.03049000       9.55565000       6.06362000       0.01937200       0.00646100      -0.02927600
O        8.60137000       8.78746000       8.72028000       0.17600800      -0.06968600      -0.03949800
O        4.31546000       7.04458000       7.16786000      -0.02548200       0.05409900      -0.08520400
O        6.64597000       9.16033000       5.15903000       0.01469000      -0.01262600       0.00141700
O        6.30183000       3.86180000       7.93538000       0.14316800       0.05065700      -0.05929100
O        8.01374000       6.57201000       0.09089000       0.00435600       0.00004800      -0.03460800
O        7.11987000       9.22079000       2.49303000      -0.01593900       0.02520100      -0.01621900
O        4.75228000       6.23514000       4.35318000      -0.06767200      -0.07800300      -0.04932000
O        9.90829000       9.57311000       0.75574000       0.18014100       0.12861100      -0.02388200
O        9.47810000       8.78194000       3.39941000       0.05785900      -0.05493500      -0.01023500
O        5.21381000       6.94703000       1.83468000      -0.12027900       0.06168700      -0.07437200
O        5.78397000       3.91397000      10.48543000      -0.01523300      -0.04120600       0.07156000
O        7.14798000       1.30040000       5.40558000       0.05680000      -0.07097800      -0.02977600
O        7.57966000       6.52106000       2.69999000       0.04252400      -0.06094900      -0.08642700
O       -0.83471000       6.96192000       7.15204000       0.06870400       0.02686900       0.05793200
O        5.80974000       9.13575000      10.44479000      -0.03321600      -0.01888900      -0.00056100
O       -1.28526000       0.90577000       9.80464000       0.08094000       0.03648800       0.03851200
O        1.44247000       3.90462000       5.16629000      -0.02342700       0.02941600      -0.01287500
O        2.82742000       1.34743000       0.11180000      -0.02707500      -0.00458700       0.01768000
O        2.39342000       1.27660000       2.76049000      -0.01714600       0.00068900      -0.02587400
O        1.92521000       3.96350000       2.51365000       0.04211900       0.02203800       0.00838200
O        0.61664000       3.89770000      10.47598000      -0.00077400      -0.01969300       0.03783800
O       -0.40606000       0.90625000       4.49994000      -0.01174400       0.01668000       0.00639900
O        1.05048000       3.96970000       7.82831000       0.01318500      -0.01324500       0.06979500
O        3.73984000       4.31020000       6.06369000      -0.13031600       0.02521800      -0.03721500
O        0.02639000       6.95988000       1.84223000       0.04531400      -0.07186500      -0.01366100
O        4.28544000       8.79205000       3.43921000      -0.06191100       0.09861700      -0.08384300
O        1.95205000       1.34834000       5.41816000      -0.04917200      -0.00453500      -0.02266400
O        4.72684000       9.57427000       0.78847000      -0.09656200      -0.07680500       0.01089700
O        4.29639000       3.52278000       3.42533000       0.01796100      -0.00167700      -0.06496700
O        0.02995000       1.71354000       1.84592000       0.08264300      -0.04779400      -0.01305900
O        3.40442000       3.52423000       8.75507000      -0.04766500       0.00245800       0.05909400
O       -0.41008000       6.15614000       4.50443000       0.06393900      -0.01674100      -0.02950400
O        1.91868000       9.21694000       2.51153000       0.02377700       0.01249900      -0.00097900
O        2.38269000       6.53289000       2.76166000      -0.03557200      -0.02742400      -0.05278900
O        2.82890000       6.59032000       0.11300000       0.00307800       0.00674900       0.01713500
O        1.48690000       9.14983000       5.15379000      -0.04446700      -0.00277300       0.03638100
O       -0.85549000       1.71986000       7.14505000       0.01090500      -0.02487200       0.02427800
O        4.71982000       4.33499000       0.78164000      -0.09141900      -0.02025700      -0.01146000
O        1.50761000       1.26556000       8.07610000      -0.07174000      -0.01332200       0.01056400
Zr       0.35127000       0.21639000       6.41495000       0.09655200       0.02474700       0.01093300
Zr       2.18016000       5.01892000       9.47952000       0.05354300       0.01491400      -0.05124100
Zr       7.75201000       7.99985000       6.78645000      -0.05176600       0.10195300      -0.06937200
Zr       2.63029000       2.84080000       6.83404000      -0.00493800      -0.04692000      -0.01553700
Zr       5.13437000       7.59930000       8.97279000       0.17090400       0.08975900       0.07533900
Zr       0.81338000       2.41975000       3.75709000       0.02450100      -0.09333500       0.02529700
Zr       3.49699000       2.84774000       1.52013000      -0.01070900      -0.01812300       0.03545900
Zr       3.13767000       5.02664000       4.22870000      -0.03027000       0.02697600       0.00480800
Zr       7.37109000      10.24889000       9.44251000      -0.17321900       0.02940600       0.03897300
Zr       6.03762000       7.63337000       3.77596000       0.23105800       0.12904100      -0.06208600
Zr       2.62167000       8.08016000       6.83236000       0.04180500      -0.03486400      -0.03099200
Zr       8.25578000      10.26248000       4.16568000      -0.17998700      -0.05213000      -0.08529500
Zr       2.19366000      10.27154000       9.48276000      -0.10612600       0.01634800      -0.04043600
Zr       0.38249000       5.46915000       6.41343000       0.01541500      -0.01595900      -0.00757200
Zr       6.44411000       0.22954000       1.06766000       0.28709800      -0.09954300       0.06710500
Zr       8.18213000       5.03187000       4.19124000      -0.02196800      -0.04970800      -0.02094600
Zr       8.69609000       2.86510000       1.50622000      -0.13773600      -0.10599300      -0.08820500
Zr       6.02465000       2.39272000       3.74007000       0.10528700      -0.01966200       0.12814400
Zr       0.81581000       7.63456000       3.75893000      -0.03595400       0.04285600       0.04608400
Zr       3.48997000       8.08185000       1.53694000      -0.02070400       0.02757900      -0.02016600
Zr       3.06454000      10.26983000       4.17404000      -0.04724400       0.04109600       0.04477200
Zr       1.24717000       5.46323000       1.10767000       0.03176900       0.02286900       0.01911300
Zr       5.58893000       0.21925000       6.39269000       0.04762800      -0.08719200       0.05393400
Zr       7.34683000       5.03068000       9.42177000      -0.06612900      -0.00640900       0.00867500
Zr       7.76130000       2.89464000       6.77900000      -0.04885300      -0.00729800       0.06380200
Zr       5.16414000       2.43151000       9.03291000       0.10030000      -0.00582500       0.03420800
Zr      -0.07019000       7.64713000       9.06596000       0.02107700      -0.01186300      -0.02801700
Zr      -0.06866000       2.40029000       9.05227000       0.02843100      -0.05412700       0.01568400
Zr       6.45624000       5.45816000       1.08470000       0.07932100       0.01555700      -0.01847400
Zr       8.67769000       8.08806000       1.48413000      -0.16031000       0.01214300       0.01077300
Zr       1.25963000       0.21998000       1.10496000      -0.16027300       0.02030400       0.00008900
