95
Lattice="10.381444 0.0 -0.053824 0.0 10.490337 0.0 -1.746774 0.0 10.614441" Properties=species:S:1:pos:R:3:forces:R:3 energy=-895.83704301 stress="9.59071 -0.62954 -1.87969 -0.62954 4.43357 -0.74911 -1.87969 -0.74911 0.8286" pbc="T T T"
O        0.60930000       9.14142000      10.49376000       0.00903600       0.00054400      -0.01022100
O        8.68242000       3.59225000       8.68903000      -0.01352100       0.00898700      -0.00011400
O        4.35081000       1.71625000       7.14138000       0.02936900      -0.00013500       0.00058400
O        6.80764000       3.76359000       5.09057000      -0.00855300       0.02049100      -0.02497700
O        8.02464000       1.35597000       0.07655000       0.00158100       0.01833000       0.01845200
O        7.59080000       1.27162000       2.73516000       0.00905700      -0.01185900       0.02072400
O        7.10560000       3.96532000       2.49105000      -0.00033800      -0.01057100       0.00346700
O        4.76848000       0.92372000       4.49363000       0.01396400       0.02153500       0.00523600
O        9.06566000       4.34385000       6.06573000       0.01556800      -0.01769900      -0.00176900
O        9.92006000       4.32254000       0.73204000      -0.01035000      -0.01622300      -0.01128100
O        5.22391000       1.69990000       1.80906000       0.01209700      -0.02186200      -0.00078800
O        7.32429000       6.68535000       5.23037000      -0.01544700       0.00363100       0.00881500
O        1.94857000       6.60554000       5.41174000      -0.00184000      -0.00006700      -0.01145600
O        1.52313000       6.51886000       8.07637000      -0.00265400      -0.00557300       0.01252300
O        1.03825000       9.21587000       7.83646000       0.00780100       0.00956400      -0.00442400
O       -1.25014000       6.14456000       9.81035000      -0.02378200      -0.00159700       0.00078600
O        3.82002000       9.60241000       6.09322000       0.05292800       0.02376400       0.01794500
O        9.49311000       3.55289000       3.38384000      -0.02139100      -0.00263300       0.00599300
O        3.40665000       8.79642000       8.76568000       0.01237200      -0.01321000       0.01362100
O        3.91208000       0.89638000       9.78241000       0.00321200      -0.00084600       0.00450100
O        6.71284000       1.24080000       8.03908000      -0.00106600       0.00419400       0.00203700
O        6.85127000       6.63007000       8.15423000      -0.00231500      -0.00778800       0.01757800
O        6.23104000       9.21117000       7.79856000      -0.00429500       0.00222900      -0.01186900
O        3.88665000       6.16534000       9.80016000       0.03016200      -0.01120000      -0.00333100
O        9.03162000       9.54832000       6.05247000      -0.03972000      -0.02432000      -0.00893500
O        8.62149000       8.79785000       8.70913000      -0.01155500       0.00517900       0.00664000
O        4.33392000       7.07175000       7.15459000       0.01372500       0.00608600      -0.02168900
O        6.63387000       9.16009000       5.16265000       0.00252000       0.01622900      -0.01455700
O        6.32637000       3.86079000       7.95186000      -0.00693100      -0.01158300      -0.01405000
O        8.00903000       6.57047000       0.07996000       0.01870900       0.00133800       0.00522500
O        7.11562000       9.21421000       2.49234000      -0.00536700       0.00058700       0.00031300
O        4.75299000       6.23007000       4.29706000       0.06042700       0.00036700      -0.05272400
O        9.91248000       9.57711000       0.74903000      -0.00708100      -0.01936900      -0.00053600
O        9.47058000       8.77233000       3.39198000      -0.02297400      -0.00037600       0.00138000
O        5.20612000       6.95911000       1.81535000       0.03016400       0.00446900      -0.00457100
O        5.78103000       3.91049000      10.49952000       0.00213900      -0.00157000       0.01540300
O        7.14804000       1.28452000       5.40882000       0.01101400      -0.00600100      -0.02236900
O        7.58310000       6.50954000       2.67608000      -0.00295500       0.02198600      -0.00904900
O       -0.82335000       6.96492000       7.15327000      -0.01138800      -0.00363400      -0.00803100
O        5.80920000       9.13485000      10.45059000      -0.00149300      -0.01417300      -0.01282800
O       -1.28971000       0.91578000       9.80907000      -0.00081000       0.01805300       0.00616300
O        1.42201000       3.90678000       5.16123000       0.01762900       0.00663900       0.00535600
O        2.82451000       1.34168000       0.11756000       0.00683600      -0.00846100      -0.01278500
O        2.38899000       1.27829000       2.76330000      -0.01219500       0.01092000       0.01992000
O        1.94208000       3.96607000       2.52480000      -0.01801300       0.02747000      -0.00721400
O        0.61779000       3.89056000      10.48939000       0.01049700      -0.00080500      -0.01884800
O       -0.41775000       0.90771000       4.50042000      -0.02442900      -0.00208100      -0.00363600
O        1.05621000       3.96615000       7.83601000      -0.00547400      -0.00467900       0.00937000
O        3.68124000       4.32980000       6.05826000      -0.04369900       0.01988500       0.02077900
O        0.02338000       6.95210000       1.83470000      -0.03009000       0.01419000       0.00140000
O        4.29023000       8.81872000       3.42335000       0.00909600      -0.01817000       0.01624500
O        1.93939000       1.35205000       5.42111000      -0.01002400      -0.00297200       0.00113800
O        4.72507000       9.56924000       0.78469000       0.00023000      -0.01094400       0.01243400
O        4.31135000       3.52603000       3.42435000      -0.00629600      -0.01570100       0.01866700
O        0.02929000       1.71350000       1.84362000      -0.01036000      -0.00088400       0.02137900
O        3.40058000       3.51446000       8.77215000       0.01489400      -0.00071300       0.00905100
O       -0.39191000       6.14201000       4.49382000      -0.02448300      -0.00541100      -0.00306500
O        1.90824000       9.22235000       2.51959000       0.01575400      -0.00329500      -0.01241000
O        2.37006000       6.53723000       2.75527000       0.00445200      -0.00534400      -0.00794000
O        2.83602000       6.58940000       0.11695000      -0.01137100      -0.00925400      -0.00092100
O        1.46983000       9.15391000       5.15979000       0.00416300      -0.01702700      -0.00403600
O       -0.85879000       1.71024000       7.15294000      -0.01492400       0.00562800       0.00328800
O        4.71196000       4.33826000       0.78775000       0.03379500       0.00449200       0.00563300
O        1.49909000       1.25970000       8.07809000      -0.00096700       0.00861500       0.00850200
Zr       0.34926000       0.21087000       6.41591000       0.04032200      -0.00972700       0.01049200
Zr       2.18120000       5.01729000       9.48409000      -0.01848000      -0.01005100      -0.01134100
Zr       7.75541000       7.99991000       6.78203000       0.00519500      -0.00434600       0.00642400
Zr       2.62649000       2.82953000       6.84481000      -0.01212300       0.01292500      -0.00322600
Zr       5.14407000       7.60365000       8.97799000       0.01918300      -0.00587800      -0.02130500
Zr       0.80831000       2.41137000       3.75964000       0.00541800      -0.01690600      -0.01711200
Zr       3.50172000       2.84075000       1.52899000      -0.02226600       0.00057800      -0.00154500
Zr       3.13087000       5.03185000       4.20832000      -0.02140000      -0.01037500       0.00951900
Zr       7.37028000      10.24859000       9.44170000       0.00450100      -0.03022400      -0.00255100
Zr       6.05376000       7.64433000       3.75745000      -0.04878300      -0.02101500       0.00991900
Zr       2.62334000       8.07514000       6.83683000      -0.03009700      -0.00033700      -0.02055000
Zr       8.24362000      10.25483000       4.16379000       0.02550600       0.01777800       0.01782500
Zr       2.18480000      10.26928000       9.48523000      -0.01091200      -0.00101400       0.00977500
Zr       0.39079000       5.46642000       6.41206000       0.01626600      -0.01095200       0.01242500
Zr       6.45359000       0.22211000       1.06847000      -0.01387500       0.00504600      -0.01743600
Zr       8.18671000       5.02715000       4.18873000       0.00579900       0.00097100       0.01841600
Zr       8.68481000       2.86188000       1.50315000       0.05187900      -0.00439400      -0.00499500
Zr       6.03144000       2.38706000       3.75346000      -0.01507800       0.00913400       0.01608400
Zr       0.80706000       7.63831000       3.76126000       0.03961200       0.03628500       0.01153900
Zr       3.47761000       8.09067000       1.53596000      -0.01720400       0.02893400       0.00933600
Zr       3.05537000      10.27300000       4.17928000      -0.04830300      -0.00783300      -0.01604500
Zr       1.25625000       5.46122000       1.11219000       0.00686300      -0.01555400      -0.02695500
Zr       5.58287000       0.21343000       6.39913000      -0.02183200      -0.00062500       0.02695100
Zr       7.35597000       5.03041000       9.42663000       0.02341700       0.00128000      -0.02121400
Zr       7.77017000       2.89362000       6.79007000       0.00670700       0.00532100       0.02314900
Zr       5.16903000       2.43081000       9.03858000      -0.01547200       0.00099600      -0.00671800
Zr      -0.06189000       7.64427000       9.06647000       0.01010000       0.01778900      -0.02565400
Zr      -0.06112000       2.39743000       9.05914000       0.01036900       0.01891100       0.00657700
Zr       6.45535000       5.45425000       1.08176000      -0.03683200       0.01048600      -0.00599200
Zr       8.67696000       8.07877000       1.48031000       0.01914700       0.01734900      -0.02577700
Zr       1.24602000       0.22405000       1.10548000       0.01733200      -0.01192500       0.03986400
