95
Lattice="10.381444 0.0 -0.053824 0.0 10.490337 0.0 -1.746774 0.0 10.614441" Properties=species:S:1:pos:R:3:forces:R:3 energy=-895.83929092 stress="9.58128 -0.64587 -1.88551 -0.64587 4.40489 -0.79035 -1.88551 -0.79035 0.81437" pbc="T T T"
O        0.60916000       9.14175000      10.49437000      -0.00247800      -0.00750100      -0.01140800
O        8.68557000       3.59590000       8.68695000      -0.00711800      -0.00386100       0.00066000
O        4.35169000       1.71793000       7.14153000       0.00686400       0.01878500       0.00176100
O        6.80682000       3.76713000       5.09042000      -0.00162200      -0.01565100       0.00276200
O        8.02386000       1.35632000       0.07805000       0.01046000       0.00808400       0.01353900
O        7.59045000       1.26981000       2.73712000       0.01239200       0.00727900       0.00729700
O        7.10461000       3.96454000       2.48991000       0.01330200      -0.01611500       0.01871700
O        4.76682000       0.92691000       4.49589000      -0.01966300      -0.00941900       0.00039200
O        9.06795000       4.34187000       6.06544000       0.01914200      -0.00357900      -0.00532800
O        9.92187000       4.31997000       0.72977000       0.00615700      -0.00285700      -0.01142300
O        5.22479000       1.69699000       1.81064000      -0.02879800       0.00888800       0.00958400
O        7.32400000       6.68563000       5.23090000      -0.01433700       0.00211900      -0.00121500
O        1.95019000       6.60661000       5.41081000      -0.01811600      -0.00142500      -0.01491900
O        1.52454000       6.51848000       8.07651000      -0.00840500      -0.00411100       0.00589100
O        1.03937000       9.21523000       7.83666000       0.00057600       0.01300000      -0.00324200
O       -1.25075000       6.14608000       9.81079000      -0.00828400       0.00634300      -0.00953200
O        3.81910000       9.60525000       6.09630000       0.02094300       0.01106100      -0.00170800
O        9.49236000       3.55498000       3.38334000       0.00573400      -0.02492900       0.00636100
O        3.40765000       8.79317000       8.76778000      -0.02165500       0.00849600       0.00531000
O        3.91330000       0.89660000       9.78310000      -0.03300500      -0.02145900      -0.00556200
O        6.71299000       1.24077000       8.03932000       0.00190500       0.00234200       0.00966000
O        6.85207000       6.62810000       8.15191000      -0.00219200      -0.00344300       0.02329800
O        6.23198000       9.21273000       7.79825000      -0.00151000      -0.02318900      -0.00808100
O        3.88754000       6.16368000       9.79976000       0.02560600      -0.01078300      -0.01571400
O        9.02979000       9.54604000       6.05086000       0.00448700      -0.00521300       0.00777000
O        8.62272000       8.79901000       8.70797000       0.00592600      -0.00674200       0.00471500
O        4.33805000       7.07545000       7.15067000      -0.01348100       0.00871500      -0.03250800
O        6.63198000       9.16100000       5.16212000       0.00178700       0.00684300      -0.01136200
O        6.32667000       3.85800000       7.95259000      -0.00485000       0.01470400      -0.01418900
O        8.01064000       6.57045000       0.07906000       0.01376600      -0.01129800      -0.00310600
O        7.11436000       9.21328000       2.49067000       0.00194300       0.00665400      -0.00018100
O        4.75689000       6.22514000       4.28526000       0.01235700      -0.04094000      -0.02943800
O        9.91346000       9.57551000       0.74848000       0.00945600       0.00346100      -0.00676600
O        9.46743000       8.77115000       3.39192000       0.02230100      -0.00909200       0.00612600
O        5.20848000       6.96206000       1.81262000      -0.01518400       0.01955900      -0.00940900
O        5.78223000       3.91066000      10.50100000       0.00262100       0.00136500      -0.01046000
O        7.14758000       1.28519000       5.40815000       0.00871400       0.01064100      -0.00000800
O        7.58177000       6.50993000       2.67509000       0.00986300       0.01056200       0.00716200
O       -0.82273000       6.96370000       7.15201000      -0.00127400      -0.00029800       0.00279700
O        5.80840000       9.13322000      10.44832000       0.02294300       0.00248300      -0.01008700
O       -1.29098000       0.91947000       9.81081000       0.01177600       0.00203100       0.01987400
O        1.42113000       3.90707000       5.16094000       0.01379700      -0.00580600      -0.00280900
O        2.82597000       1.34083000       0.11892000      -0.00574800      -0.01555500      -0.00518800
O        2.38805000       1.27949000       2.76555000      -0.00896700      -0.00221900       0.00885600
O        1.94321000       3.96812000       2.52516000      -0.01686800       0.01066500      -0.00916100
O        0.61912000       3.88950000      10.48985000       0.01365000       0.00288100      -0.00899400
O       -0.41979000       0.90824000       4.50135000       0.00868100       0.00247600       0.00147900
O        1.05598000       3.96535000       7.83691000      -0.00035500       0.00187500       0.00639700
O        3.67158000       4.33634000       6.06049000      -0.03529900       0.01793000       0.02497900
O        0.02122000       6.95264000       1.83370000       0.02433200      -0.01322700       0.01098700
O        4.28998000       8.82074000       3.42279000      -0.01906300      -0.00936000       0.02231200
O        1.93711000       1.35197000       5.42296000      -0.00416000      -0.00962000      -0.00877900
O        4.72469000       9.56888000       0.78352000      -0.01289800      -0.01602100       0.01741400
O        4.31168000       3.52576000       3.42661000      -0.02864900      -0.02429800       0.00641900
O        0.02800000       1.71336000       1.84529000       0.02394300      -0.02602400       0.02327900
O        3.40075000       3.51365000       8.77438000      -0.00219400       0.00548700       0.00000000
O       -0.39143000       6.13984000       4.49173000       0.01070200       0.02286900       0.01385200
O        1.90773000       9.22231000       2.51972000       0.00416900       0.01063100       0.00115400
O        2.37062000       6.53903000       2.75473000      -0.01488700      -0.00218800      -0.00586600
O        2.83576000       6.58781000       0.11765000      -0.00362100       0.01197500      -0.01443400
O        1.46915000       9.15282000       5.16008000       0.00654500       0.00407600      -0.00162800
O       -0.85946000       1.70863000       7.15393000       0.00582000      -0.00685000       0.00985100
O        4.71430000       4.33809000       0.79049000      -0.01216100      -0.01599300      -0.00964800
O        1.50061000       1.25995000       8.07936000      -0.01597800       0.00117700       0.00817000
Zr       0.34955000       0.20892000       6.41635000      -0.00690400       0.02176800       0.01809800
Zr       2.18111000       5.01670000       9.48447000       0.00302900      -0.00277700       0.00009300
Zr       7.75534000       7.99838000       6.78165000      -0.01779800       0.02076300      -0.00731300
Zr       2.62600000       2.82840000       6.84642000       0.00089300       0.01598900      -0.00036100
Zr       5.14506000       7.60238000       8.97651000       0.02297500       0.00668800       0.00130900
Zr       0.80706000       2.41066000       3.75962000      -0.02398500       0.00330100      -0.00067700
Zr       3.50302000       2.83940000       1.53039000      -0.00127200       0.02600200       0.00125000
Zr       3.12829000       5.03226000       4.20524000       0.01002900      -0.00028500       0.00725200
Zr       7.37164000      10.24738000       9.44042000      -0.02571600      -0.00919100       0.01459400
Zr       6.05144000       7.64379000       3.75674000       0.01411400       0.02909500       0.00065800
Zr       2.62295000       8.07474000       6.83604000       0.01734700      -0.00808500       0.00388300
Zr       8.24400000      10.25439000       4.16452000      -0.03362000       0.00713700       0.00082600
Zr       2.18368000      10.26825000       9.48653000       0.05318400       0.00869200      -0.00246900
Zr       0.39264000       5.46550000       6.41215000       0.00157900      -0.00853600       0.00024300
Zr       6.45323000       0.22218000       1.06925000       0.02575500      -0.01733900      -0.02334900
Zr       8.18639000       5.02803000       4.18971000      -0.01662200       0.00059400      -0.01665600
Zr       8.68589000       2.86133000       1.50322000       0.00523700       0.01442600      -0.00927100
Zr       6.03117000       2.38630000       3.75525000       0.02485500       0.03185800       0.01348200
Zr       0.80661000       7.64038000       3.76180000      -0.00180300      -0.01600100      -0.01367500
Zr       3.47584000       8.09208000       1.53662000       0.02849300      -0.00147600      -0.00025300
Zr       3.05336000      10.27374000       4.18017000       0.01728300      -0.00494300       0.00332600
Zr       1.25707000       5.46118000       1.10991000      -0.02912400      -0.00133600       0.00429100
Zr       5.58188000       0.21511000       6.40051000       0.01802900      -0.01583500       0.00871600
Zr       7.35719000       5.03075000       9.42469000      -0.00365000      -0.01056600       0.01243200
Zr       7.77152000       2.89496000       6.79240000      -0.01529300      -0.01941100      -0.02382300
Zr       5.16859000       2.43142000       9.03922000       0.01103600      -0.01366000       0.02016500
Zr      -0.06167000       7.64507000       9.06501000      -0.00341500      -0.00513500      -0.01543600
Zr      -0.06015000       2.39795000       9.06017000      -0.00638100       0.00240300      -0.00427900
Zr       6.45523000       5.45381000       1.08172000       0.00400700       0.01145700       0.00103900
Zr       8.67765000       8.07821000       1.47871000      -0.03405800       0.01687300      -0.01779100
Zr       1.24626000       0.22308000       1.10758000      -0.01804700       0.02113900      -0.00297800
