95
Lattice="10.381444 0.0 -0.053824 0.0 10.490337 0.0 -1.746774 0.0 10.614441" Properties=species:S:1:pos:R:3:forces:R:3 energy=-895.84112745 stress="9.5829 -0.61283 -1.87616 -0.61283 4.44241 -0.8339 -1.87616 -0.8339 0.84324" pbc="T T T"
O        0.60894000       9.14156000      10.49416000      -0.00070800      -0.00977300      -0.01208200
O        8.68708000       3.59788000       8.68575000      -0.01270000      -0.00940000      -0.00602500
O        4.35255000       1.71988000       7.14170000       0.01030300       0.01510000       0.00444600
O        6.80625000       3.76844000       5.09047000       0.00789000      -0.01353400       0.01928400
O        8.02392000       1.35693000       0.07962000       0.00557400      -0.00796900       0.00121700
O        7.59087000       1.26911000       2.73865000       0.00628600       0.01318000      -0.00857000
O        7.10469000       3.96327000       2.49017000       0.01513100      -0.00164600       0.01362200
O        4.76485000       0.92833000       4.49726000       0.00695100      -0.00375900       0.00350300
O        9.07027000       4.34052000       6.06500000      -0.00320400      -0.01076600      -0.01346600
O        9.92326000       4.31829000       0.72784000      -0.00001100      -0.00851000      -0.00493600
O        5.22386000       1.69570000       1.81206000      -0.00425400      -0.00511000       0.00241100
O        7.32310000       6.68591000       5.23116000      -0.01189300       0.00353100      -0.00786400
O        1.95024000       6.60717000       5.40950000      -0.01284400      -0.00544200      -0.00620900
O        1.52495000       6.51804000       8.07689000      -0.00282300      -0.00434600      -0.00688300
O        1.04007000       9.21550000       7.83661000      -0.00020200       0.00980700      -0.00796100
O       -1.25153000       6.14730000       9.81057000      -0.00834900       0.00135000      -0.01046300
O        3.81962000       9.60750000       6.09804000       0.00465600      -0.00402200       0.00307800
O        9.49220000       3.55496000       3.38337000      -0.00652000      -0.01218300      -0.00031400
O        3.40716000       8.79167000       8.76930000       0.00011500      -0.00819000      -0.00601300
O        3.91237000       0.89565000       9.78323000       0.00496200      -0.00634600       0.00087600
O        6.71318000       1.24087000       8.03995000       0.00257900      -0.00859500       0.01494100
O        6.85244000       6.62676000       8.15170000      -0.00423600       0.01007300       0.01701000
O        6.23247000       9.21248000       7.79767000      -0.00254300      -0.02404700       0.00059900
O        3.88935000       6.16215000       9.79873000       0.02941700      -0.00623700      -0.01488700
O        9.02894000       9.54441000       6.05030000       0.01144600       0.00712200       0.01030500
O        8.62375000       8.79936000       8.70752000      -0.01458800       0.00702100       0.00166700
O        4.33982000       7.07809000       7.14671000      -0.00135700       0.00890300      -0.01661600
O        6.63095000       9.16189000       5.16123000      -0.00134400       0.00842200      -0.00288600
O        6.32660000       3.85709000       7.95231000      -0.00459900       0.01015400      -0.00802000
O        8.01229000       6.56986000       0.07836000       0.00272500      -0.00444100       0.00684500
O        7.11370000       9.21306000       2.48967000       0.00457400       0.00666900      -0.00488000
O        4.75983000       6.22014000       4.27676000       0.01308300      -0.03997700      -0.02610200
O        9.91452000       9.57474000       0.74781000      -0.01650600      -0.00307100      -0.00810200
O        9.46669000       8.76998000       3.39219000       0.00454500       0.00850200      -0.00236400
O        5.20913000       6.96480000       1.81052000      -0.00096300       0.00552200      -0.00862300
O        5.78307000       3.91082000      10.50134000      -0.00231100       0.00010800      -0.00903300
O        7.14775000       1.28613000       5.40775000       0.00227600       0.00534000       0.01181900
O        7.58147000       6.51069000       2.67486000       0.00877000       0.00011300       0.00270300
O       -0.82242000       6.96297000       7.15140000      -0.00987300       0.00216800      -0.00066200
O        5.80908000       9.13238000      10.44645000       0.01648900       0.01227700       0.00179000
O       -1.29115000       0.92176000       9.81284000      -0.01625700      -0.01133800       0.01295100
O        1.42130000       3.90695000       5.16063000       0.00573700      -0.00759600      -0.00071300
O        2.82655000       1.33953000       0.11948000      -0.00825600       0.00146500       0.00881200
O        2.38704000       1.28009000       2.76734000      -0.00442100      -0.00226500       0.00097400
O        1.94303000       3.96988000       2.52491000      -0.01508700       0.00036900      -0.00803900
O        0.62059000       3.88902000      10.48967000       0.00579600       0.00457600      -0.00460300
O       -0.42057000       0.90868000       4.50198000      -0.00408700      -0.00904000       0.00810600
O        1.05583000       3.96496000       7.83777000       0.00242200       0.00480900      -0.00152800
O        3.66404000       4.34113000       6.06308000      -0.01885000       0.03190300       0.02369100
O        0.02116000       6.95229000       1.83367000       0.00517800      -0.00730100       0.00251000
O        4.28887000       8.82147000       3.42358000      -0.00093500      -0.02433500       0.02321800
O        1.93554000       1.35143000       5.42362000       0.00029600       0.00086900       0.00485500
O        4.72382000       9.56785000       0.78370000       0.02358000       0.00711000       0.01740300
O        4.31043000       3.52437000       3.42827000      -0.02402100      -0.02519300       0.00930000
O        0.02844000       1.71197000       1.84746000      -0.00552000      -0.00558000       0.01381100
O        3.40074000       3.51345000       8.77570000       0.00457300      -0.00331600      -0.00318300
O       -0.39060000       6.13970000       4.49119000      -0.00648300       0.00944300       0.01929600
O        1.90764000       9.22282000       2.51986000       0.00129700       0.01185400       0.00340100
O        2.37020000       6.53999000       2.75412000      -0.01006300      -0.00936200      -0.00162100
O        2.83543000       6.58747000       0.11733000       0.00133500       0.00972400      -0.01489000
O        1.46907000       9.15238000       5.16017000       0.01214900       0.01016400       0.00437700
O       -0.85957000       1.70732000       7.15502000      -0.00671000      -0.00151300       0.00987600
O        4.71509000       4.33717000       0.79164000      -0.00246800      -0.00043300      -0.01265600
O        1.50071000       1.26016000       8.08054000      -0.01514400       0.00384400      -0.00034700
Zr       0.34937000       0.20887000       6.41752000      -0.00179600       0.01284900       0.00849600
Zr       2.18120000       5.01620000       9.48470000       0.00255400       0.01133200       0.00564200
Zr       7.75440000       7.99852000       6.78105000       0.00384600       0.00254400      -0.00782800
Zr       2.62575000       2.82853000       6.84736000      -0.00534100      -0.01421300       0.00558300
Zr       5.14681000       7.60196000       8.97570000      -0.01174600      -0.01399600      -0.01283700
Zr       0.80510000       2.41040000       3.75958000       0.00384500      -0.00833400       0.01453000
Zr       3.50372000       2.83991000       1.53128000      -0.01461400      -0.00043700       0.00083500
Zr       3.12726000       5.03248000       4.20377000       0.00539800       0.01358700      -0.01002500
Zr       7.37115000      10.24619000       9.44040000       0.02551700       0.01232800       0.00881400
Zr       6.05078000       7.64493000       3.75635000       0.01301700       0.01610100      -0.00137900
Zr       2.62359000       8.07410000       6.83576000       0.00720500       0.00340000       0.00621300
Zr       8.24254000      10.25448000       4.16499000      -0.00109200       0.00020200      -0.00903600
Zr       2.18569000      10.26807000       9.48719000      -0.00327300      -0.00065700      -0.00512000
Zr       0.39383000       5.46452000       6.41222000      -0.00038300       0.00710500      -0.00604300
Zr       6.45431000       0.22135000       1.06854000      -0.01608100       0.01054500       0.00750400
Zr       8.18536000       5.02858000       4.18946000       0.00388900       0.01261300      -0.00851100
Zr       8.68680000       2.86173000       1.50279000       0.00224000       0.01019400       0.00694400
Zr       6.03226000       2.38746000       3.75699000      -0.00372400       0.00373800      -0.01284000
Zr       0.80625000       7.64081000       3.76143000       0.00368400      -0.01455700      -0.01795300
Zr       3.47622000       8.09285000       1.53701000      -0.01443400      -0.01288600      -0.01781300
Zr       3.05303000      10.27393000       4.18086000       0.00610800       0.01071000       0.00257100
Zr       1.25610000       5.46108000       1.10876000      -0.00486500       0.02102700       0.01555600
Zr       5.58221000       0.21531000       6.40177000      -0.00032700       0.00217500      -0.01392900
Zr       7.35773000       5.03042000       9.42416000      -0.00750500      -0.01020300       0.00403300
Zr       7.77155000       2.89478000       6.79259000      -0.00460100      -0.00611000      -0.01813800
Zr       5.16889000       2.43109000       9.04062000       0.00340200       0.00332500       0.00338000
Zr      -0.06171000       7.64528000       9.06337000       0.01592700       0.00085200       0.01310200
Zr      -0.05989000       2.39838000       9.06057000       0.00297800      -0.01496900       0.00702800
Zr       6.45536000       5.45413000       1.08175000       0.00061600       0.00857800      -0.00263100
Zr       8.67634000       8.07872000       1.47685000       0.00759300      -0.00479500       0.01561000
Zr       1.24549000       0.22358000       1.10868000       0.02195700       0.01109500      -0.01990900
