95
Lattice="10.381444 0.0 -0.053824 0.0 10.490337 0.0 -1.746774 0.0 10.614441" Properties=species:S:1:pos:R:3:forces:R:3 energy=-895.84487132 stress="9.64371 -0.5974 -1.81616 -0.5974 4.58394 -0.87499 -1.81616 -0.87499 0.92037" pbc="T T T"
O        0.60925000       9.14000000      10.49236000       0.00880000       0.01091000       0.00798700
O        8.69006000       3.59964000       8.68088000      -0.03233900       0.01329400       0.00705500
O        4.35642000       1.72782000       7.14238000       0.00726900      -0.00309600      -0.01120400
O        6.80680000       3.77036000       5.09404000      -0.00982700      -0.01374900      -0.02590700
O        8.02424000       1.35673000       0.08308000       0.00236200       0.00197300      -0.00688200
O        7.59176000       1.27009000       2.74044000      -0.00665800       0.00353800      -0.01022900
O        7.10652000       3.96287000       2.49202000      -0.00941600       0.01142900      -0.00822600
O        4.76368000       0.93207000       4.50161000       0.00292100      -0.02841300      -0.00443000
O        9.07458000       4.33517000       6.06009000       0.00252500       0.00993700       0.00264900
O        9.92808000       4.31287000       0.72302000      -0.01861000      -0.00681200       0.00542800
O        5.22121000       1.69205000       1.81611000       0.01239800       0.01011400      -0.00332500
O        7.31847000       6.68775000       5.22957000       0.00335700       0.01177700       0.00721300
O        1.94891000       6.60766000       5.40557000       0.00132000       0.01285300      -0.00447400
O        1.52612000       6.51693000       8.07526000       0.00174600       0.01045400      -0.01481200
O        1.04159000       9.21740000       7.83616000      -0.00305800      -0.00562800      -0.00235700
O       -1.25327000       6.15113000       9.80884000      -0.01034900      -0.02092900       0.00810500
O        3.81938000       9.61159000       6.10361000      -0.00310500       0.01223000      -0.00788700
O        9.49049000       3.55471000       3.38354000       0.01809100      -0.00379800       0.00253400
O        3.40530000       8.78592000       8.77170000       0.00335400      -0.00727200      -0.01130600
O        3.91339000       0.89352000       9.78352000       0.01199800       0.00312900      -0.00044800
O        6.71368000       1.23918000       8.04369000      -0.00680600      -0.00346800      -0.00234000
O        6.85325000       6.62535000       8.15260000       0.00522700       0.00093300      -0.00001400
O        6.23295000       9.20864000       7.79507000      -0.00077800       0.01274600       0.00253500
O        3.89760000       6.15510000       9.79355000       0.00405900       0.00809100      -0.01806500
O        9.02939000       9.54266000       6.05074000      -0.01068900      -0.00253500      -0.00778700
O        8.62554000       8.80064000       8.70541000      -0.01041900       0.01484800      -0.00122700
O        4.34656000       7.08617000       7.13337000       0.01005000      -0.00439100       0.00482800
O        6.62799000       9.16609000       5.15880000       0.02066200      -0.00312700      -0.00046900
O        6.32551000       3.85614000       7.95085000       0.00375400       0.00670900       0.01032900
O        8.01594000       6.56788000       0.07968000      -0.00493800       0.00692800      -0.00581400
O        7.11294000       9.21301000       2.48701000       0.00658000       0.00847000       0.00957100
O        4.77210000       6.19948000       4.24810000       0.02144700      -0.02224700      -0.01604900
O        9.91552000       9.57251000       0.74587000       0.00901100       0.00376200       0.00889200
O        9.46461000       8.76964000       3.39163000       0.02072900       0.00801600      -0.00212300
O        5.21138000       6.97241000       1.80216000       0.00495000      -0.00738100      -0.00928700
O        5.78397000       3.91152000      10.50136000       0.00278800      -0.00837700       0.00320900
O        7.14773000       1.28830000       5.40949000       0.00173800      -0.01108600      -0.00238400
O        7.58205000       6.51159000       2.67400000       0.00408500       0.00758600      -0.00299600
O       -0.82330000       6.96121000       7.15014000      -0.00258000      -0.00527600       0.00048600
O        5.81239000       9.13196000      10.44329000      -0.00790500      -0.00223600       0.00870700
O       -1.29381000       0.92654000       9.82020000      -0.01303300      -0.01336600      -0.00298100
O        1.42207000       3.90478000       5.16003000       0.00237300       0.00052500       0.00298100
O        2.82655000       1.33776000       0.12332000      -0.00166500       0.00319000       0.00093000
O        2.38455000       1.28191000       2.77074000       0.00533500      -0.00831500       0.00776500
O        1.94020000       3.97330000       2.52289000      -0.00237600      -0.01233400       0.01025100
O        0.62425000       3.88838000      10.48939000      -0.01084600       0.00794100       0.00466100
O       -0.42372000       0.90768000       4.50639000       0.01436700       0.00922900      -0.00145500
O        1.05625000       3.96438000       7.83927000      -0.00165200       0.00416300      -0.01196000
O        3.64001000       4.36194000       6.07365000      -0.01694400       0.02411500       0.00035900
O        0.02045000       6.95055000       1.83369000      -0.00926000       0.01570600       0.01541900
O        4.28593000       8.81737000       3.42972000      -0.02345500      -0.01238800       0.00695200
O        1.93222000       1.35120000       5.42807000       0.01500800      -0.00649700      -0.00774000
O        4.72541000       9.56704000       0.78662000      -0.00361900       0.01155300      -0.00430600
O        4.30216000       3.51517000       3.43461000      -0.00601800      -0.01196200       0.01153400
O        0.02682000       1.70767000       1.85443000      -0.02010400       0.00015200      -0.00053800
O        3.40079000       3.51190000       8.77866000       0.01169500      -0.01992600      -0.00200600
O       -0.39131000       6.14018000       4.49278000       0.00259900       0.02324400      -0.00354100
O        1.90786000       9.22589000       2.51976000       0.00117300      -0.00885300       0.00629900
O        2.36845000       6.54083000       2.75133000       0.00079700       0.00771000       0.00654700
O        2.83552000       6.58828000       0.11436000       0.00820500       0.00457600       0.00643200
O        1.47162000       9.15317000       5.16093000      -0.00396000      -0.00155500      -0.00901000
O       -0.86198000       1.70372000       7.16035000      -0.00343500      -0.00912400      -0.00457800
O        4.71752000       4.33638000       0.79273000      -0.00507100       0.00557500       0.00982800
O        1.49887000       1.26143000       8.08367000       0.00975500      -0.00527300       0.00037200
Zr       0.34738000       0.20857000       6.41964000      -0.00187900       0.00328400       0.02644600
Zr       2.18352000       5.01630000       9.48542000      -0.02331100      -0.00707100      -0.01120900
Zr       7.75409000       7.99812000       6.77957000      -0.00452900       0.00534200      -0.00419400
Zr       2.62528000       2.82528000       6.85208000      -0.01135200       0.01004400       0.01741100
Zr       5.14856000       7.59967000       8.97104000      -0.01074900       0.01251900       0.00658400
Zr       0.80167000       2.40711000       3.76331000       0.01528700       0.01570300      -0.01162600
Zr       3.50286000       2.83993000       1.53457000      -0.02613700       0.01044300      -0.02317300
Zr       3.12615000       5.03646000       4.19768000      -0.00178000      -0.00413600      -0.00778000
Zr       7.37411000      10.24570000       9.44173000      -0.00426300      -0.01612200      -0.00622700
Zr       6.04974000       7.64840000       3.75429000       0.01078900      -0.00647900      -0.00623700
Zr       2.62548000       8.07462000       6.83501000      -0.01729700      -0.01365600       0.00586200
Zr       8.24213000      10.25468000       4.16346000      -0.01412100      -0.00933600       0.01926300
Zr       2.18862000      10.26550000       9.48739000      -0.01666700       0.01682100       0.00591300
Zr       0.39567000       5.46447000       6.41092000       0.00746100      -0.00861900       0.01538100
Zr       6.45423000       0.22306000       1.06980000      -0.01089100      -0.01122200      -0.00789600
Zr       8.18465000       5.03203000       4.18961000      -0.01975000      -0.01738100      -0.00052600
Zr       8.68847000       2.86179000       1.50388000       0.00452800       0.01556800       0.00794000
Zr       6.03264000       2.38859000       3.75775000      -0.00488900       0.01793400       0.02315400
Zr       0.80526000       7.64162000       3.76003000       0.00129800      -0.00238500       0.00532100
Zr       3.47354000       8.09325000       1.53535000       0.00197700       0.00193500      -0.00149500
Zr       3.05295000      10.27578000       4.18390000       0.02444300      -0.00774900      -0.01681600
Zr       1.25353000       5.46406000       1.10721000       0.02744000      -0.02722500      -0.01447300
Zr       5.58239000       0.21733000       6.40323000       0.01429700      -0.00419500      -0.00052400
Zr       7.35736000       5.02819000       9.42224000       0.01357500       0.00562600       0.00513700
Zr       7.77184000       2.89472000       6.79168000       0.00281400      -0.00366900       0.00366800
Zr       5.17078000       2.43130000       9.04357000      -0.00619100       0.00195700      -0.00928200
Zr      -0.06084000       7.64544000       9.06155000       0.01376900      -0.00793500       0.00226700
Zr      -0.06059000       2.39788000       9.06321000       0.02220000       0.01145400       0.00389200
Zr       6.45670000       5.45582000       1.08096000       0.00450500      -0.01252400       0.01353700
Zr       8.67631000       8.07882000       1.47513000      -0.00345100      -0.00688900      -0.00050600
Zr       1.24650000       0.22507000       1.10880000       0.00925900      -0.00003100       0.00848500
